@<TRIPOS>MOLECULE
U6B
   52    54     1     0     0
SMALL
bcc


@<TRIPOS>ATOM
      1 C9           3.6270    -3.0180    -0.0660 c2         1 U6B       0.396200
      2 C23         -5.5170     0.6420     1.4950 ca         1 U6B      -0.089000
      3 C25         -5.8770     0.6870    -0.8950 ca         1 U6B      -0.089000
      4 C22         -4.2980     0.0240     1.2920 ca         1 U6B      -0.125000
      5 C26         -4.6570     0.0660    -1.0820 ca         1 U6B      -0.125000
      6 C2          -1.7590    -0.6560    -1.3140 ca         1 U6B      -0.112500
      7 C4          -2.0890    -1.9050     0.7020 ca         1 U6B      -0.112500
      8 C1          -0.5450    -1.2970    -1.5090 ca         1 U6B      -0.120000
      9 C5          -0.8770    -2.5450     0.5000 ca         1 U6B      -0.120000
     10 C24         -6.3120     0.9760     0.3980 ca         1 U6B      -0.019000
     11 C21         -3.8470    -0.2770     0.0040 cp         1 U6B      -0.007000
     12 C3          -2.5510    -0.9490    -0.2040 cp         1 U6B      -0.043000
     13 C6          -0.0860    -2.2520    -0.6080 ca         1 U6B      -0.067300
     14 C12          2.8710     0.1530     0.3240 c          1 U6B       0.681100
     15 C15          4.7790     1.3500    -0.7160 c6         1 U6B      -0.115400
     16 C19          2.9790     2.6980     0.3770 c6         1 U6B      -0.115400
     17 C16          5.6170     1.6400     0.5180 c6         1 U6B       0.134400
     18 C18          3.9620     2.9640     1.5110 c6         1 U6B       0.134400
     19 C14          3.2660     1.4250    -0.4390 c6         1 U6B       0.097200
     20 C7           1.2430    -2.9230    -0.7940 c3         1 U6B      -0.040100
     21 C8           2.3530    -2.2150     0.0000 c3         1 U6B       0.059400
     22 N28         -8.5910     2.1260     0.7620 n1         1 U6B      -0.361800
     23 N10          4.7030    -2.5380    -0.5140 n2         1 U6B      -0.737100
     24 N20          2.5830     1.4150    -1.7280 n8         1 U6B      -0.903800
     25 N11          2.5290    -0.8730    -0.4670 ns         1 U6B      -0.541900
     26 O13          2.8970     0.0820     1.5450 o          1 U6B      -0.617100
     27 O17          5.3040     2.8980     1.0740 os         1 U6B      -0.408600
     28 H9           3.5280    -4.0400     0.3090 h4         1 U6B      -0.036200
     29 H8           2.0460    -2.1820     1.0500 h1         1 U6B       0.093700
     30 H10          5.4440    -3.2330    -0.4730 hn         1 U6B       0.377400
     31 H23         -5.8500     0.8700     2.4980 ha         1 U6B       0.144500
     32 H22         -3.6840    -0.2120     2.1510 ha         1 U6B       0.140000
     33 H25         -6.4940     0.9380    -1.7460 ha         1 U6B       0.144500
     34 H26         -4.3430    -0.1730    -2.0890 ha         1 U6B       0.140000
     35 H2          -2.0780     0.0920    -2.0290 ha         1 U6B       0.133500
     36 H1           0.0510    -1.0460    -2.3780 ha         1 U6B       0.132500
     37 H4          -2.6900    -2.1760     1.5610 ha         1 U6B       0.133500
     38 H5          -0.5480    -3.2920     1.2140 ha         1 U6B       0.132500
     39 H71C         1.1870    -3.9620    -0.4610 hc         1 U6B       0.055700
     40 H72C         1.5140    -2.9460    -1.8520 hc         1 U6B       0.055700
     41 H11          2.5860    -0.6990    -1.4610 hn         1 U6B       0.342500
     42 H151         5.0170     2.0910    -1.4860 hc         1 U6B       0.054950
     43 H152         5.0430     0.3690    -1.1170 hc         1 U6B       0.054950
     44 H161         5.4910     0.8430     1.2620 h1         1 U6B       0.055700
     45 H162         6.6740     1.6640     0.2470 h1         1 U6B       0.055700
     46 H191         1.9600     2.6830     0.7730 hc         1 U6B       0.054950
     47 H192         3.0300     3.5370    -0.3250 hc         1 U6B       0.054950
     48 H181         3.8090     3.9740     1.8950 h1         1 U6B       0.055700
     49 H182         3.7950     2.2690     2.3390 h1         1 U6B       0.055700
     50 H201         1.5960     1.6140    -1.6060 hn         1 U6B       0.350800
     51 H202         2.9500     2.1610    -2.3070 hn         1 U6B       0.350800
     52 C27         -7.5720     1.6120     0.6000 cg         1 U6B       0.233800
@<TRIPOS>BOND
     1     1    21 1   
     2     1    23 2   
     3     1    28 1   
     4     2     4 ar  
     5     2    10 ar  
     6     2    31 1   
     7     3     5 ar  
     8     3    10 ar  
     9     3    33 1   
    10     4    11 ar  
    11     4    32 1   
    12     5    11 ar  
    13     5    34 1   
    14     6     8 ar  
    15     6    12 ar  
    16     6    35 1   
    17     7     9 ar  
    18     7    12 ar  
    19     7    37 1   
    20     8    13 ar  
    21     8    36 1   
    22     9    13 ar  
    23     9    38 1   
    24    10    52 1   
    25    11    12 1   
    26    13    20 1   
    27    14    19 1   
    28    14    25 1   
    29    14    26 2   
    30    15    17 1   
    31    15    19 1   
    32    15    42 1   
    33    15    43 1   
    34    16    18 1   
    35    16    19 1   
    36    16    46 1   
    37    16    47 1   
    38    17    27 1   
    39    17    44 1   
    40    17    45 1   
    41    18    27 1   
    42    18    48 1   
    43    18    49 1   
    44    19    24 1   
    45    20    21 1   
    46    20    39 1   
    47    20    40 1   
    48    21    25 1   
    49    21    29 1   
    50    22    52 3   
    51    23    30 1   
    52    24    50 1   
    53    24    51 1   
    54    25    41 1   
@<TRIPOS>SUBSTRUCTURE
     1 U6B         1 TEMP              0 ****  ****    0 ROOT
