@<TRIPOS>MOLECULE
U6C
   60    64     1     0     0
SMALL
abcg2


@<TRIPOS>ATOM
      1 C1         -52.5530   -15.4000     1.1630 ca         1 U6C      -0.004200
      2 C11        -55.1360   -14.8340     4.4960 cp         1 U6C      -0.032000
      3 C12        -56.3200   -15.5590     4.6520 ca         1 U6C       0.290900
      4 C14        -56.8070   -14.5330     6.6370 ca         1 U6C       0.276900
      5 C15        -55.6480   -13.7430     6.5920 ca         1 U6C       0.268000
      6 C16        -54.8100   -13.9200     5.4870 ca         1 U6C      -0.156000
      7 C18        -55.9940   -12.8050     8.8410 c3         1 U6C       0.261100
      8 C19        -55.7630   -14.0440     9.6800 ca         1 U6C      -0.123300
      9 C2         -53.9460   -15.3850     0.9760 ca         1 U6C      -0.263900
     10 C20        -56.7700   -14.5220    10.5130 ca         1 U6C      -0.100500
     11 C21        -56.5600   -15.6370    11.3150 ca         1 U6C      -0.105500
     12 C22        -55.3360   -16.2930    11.2870 ca         1 U6C      -0.105000
     13 C23        -54.3280   -15.8250    10.4540 ca         1 U6C      -0.105500
     14 C24        -54.5400   -14.7090     9.6570 ca         1 U6C      -0.100500
     15 C25        -55.2970   -15.6190    -2.5540 c3         1 U6C       0.198800
     16 C26        -56.6860   -15.9500    -3.0830 c3         1 U6C       0.159800
     17 C28        -56.8310   -14.5230    -5.0300 c6         1 U6C       0.127800
     18 C29        -56.8250   -14.5240    -6.5460 c6         1 U6C       0.153100
     19 C3         -54.8050   -15.2090     2.0610 ca         1 U6C      -0.008000
     20 C31        -57.8000   -16.6290    -6.5880 c6         1 U6C       0.153100
     21 C32        -57.8310   -16.6740    -5.0720 c6         1 U6C       0.127800
     22 C4         -54.2640   -15.0380     3.3240 cp         1 U6C      -0.089000
     23 C5         -52.8570   -15.0580     3.4860 ca         1 U6C      -0.050000
     24 C6         -51.9900   -15.2390     2.4350 ca         1 U6C      -0.148000
     25 C9         -54.1090   -15.5680    -0.4370 cc         1 U6C       0.573800
     26 N10        -55.3000   -15.6770    -1.1070 nu         1 U6C      -0.845400
     27 N13        -57.1230   -15.4050     5.6920 nb         1 U6C      -0.637000
     28 N17        -55.3560   -12.8090     7.5500 nu         1 U6C      -0.951200
     29 N27        -56.7400   -15.8840    -4.5290 n3         1 U6C      -0.718600
     30 N7         -52.0090   -15.5880    -0.0530 na         1 U6C      -0.068400
     31 N8         -52.9450   -15.6750    -1.0260 nd         1 U6C      -0.583100
     32 O30        -57.8740   -15.3060    -7.0710 os         1 U6C      -0.450000
     33 H38        -56.6090   -16.3020     3.9160 h4         1 U6C       0.020100
     34 H39        -57.5000   -14.4540     7.4670 h4         1 U6C       0.021100
     35 H40        -53.9110   -13.3180     5.4050 ha         1 U6C       0.114000
     36 H42        -55.6160   -11.9310     9.3750 h1         1 U6C       0.058700
     37 H43        -57.0690   -12.6380     8.7280 h1         1 U6C       0.058700
     38 H44        -57.7310   -14.0210    10.5300 ha         1 U6C       0.109000
     39 H45        -57.3550   -15.9980    11.9540 ha         1 U6C       0.114000
     40 H46        -55.1710   -17.1650    11.9060 ha         1 U6C       0.114000
     41 H47        -53.3720   -16.3330    10.4240 ha         1 U6C       0.114000
     42 H48        -53.7450   -14.3590     9.0100 ha         1 U6C       0.109000
     43 H50        -54.5940   -16.3600    -2.9360 h1         1 U6C       0.055200
     44 H49        -54.9560   -14.6420    -2.9200 h1         1 U6C       0.055200
     45 H52        -57.4390   -15.2920    -2.6150 h1         1 U6C       0.037200
     46 H51        -56.9280   -16.9690    -2.7710 h1         1 U6C       0.037200
     47 H54        -57.7430   -14.0200    -4.6630 h1         1 U6C       0.041200
     48 H56        -55.8530   -14.8940    -6.9040 h1         1 U6C       0.051450
     49 H57        -56.9560   -13.5080    -6.9210 h1         1 U6C       0.051450
     50 H33        -55.8780   -15.1800     1.9150 ha         1 U6C       0.119000
     51 H58        -58.6500   -17.1750    -6.9970 h1         1 U6C       0.051450
     52 H59        -56.8810   -17.1160    -6.9440 h1         1 U6C       0.051450
     53 H61        -58.8130   -16.3230    -4.7130 h1         1 U6C       0.041200
     54 H60        -57.7210   -17.7130    -4.7500 h1         1 U6C       0.041200
     55 H34        -52.4460   -14.9460     4.4820 ha         1 U6C       0.113000
     56 H35        -50.9200   -15.2600     2.5900 ha         1 U6C       0.121000
     57 H37        -56.0510   -15.1560    -0.6770 hn         1 U6C       0.460000
     58 H41        -54.4210   -12.4370     7.5230 hn         1 U6C       0.472000
     59 H36        -51.0340   -15.6340    -0.2970 hn         1 U6C       0.377000
     60 H55        -55.9800   -13.9350    -4.6820 h1         1 U6C       0.041200
@<TRIPOS>BOND
     1     1     9 ar  
     2     1    24 ar  
     3     1    30 1   
     4     2     3 ar  
     5     2     6 ar  
     6     2    22 1   
     7     3    27 ar  
     8     3    33 1   
     9     4     5 ar  
    10     4    27 ar  
    11     4    34 1   
    12     5     6 ar  
    13     5    28 1   
    14     6    35 1   
    15     7     8 1   
    16     7    28 1   
    17     7    36 1   
    18     7    37 1   
    19     8    10 ar  
    20     8    14 ar  
    21     9    19 ar  
    22     9    25 1   
    23    10    11 ar  
    24    10    38 1   
    25    11    12 ar  
    26    11    39 1   
    27    12    13 ar  
    28    12    40 1   
    29    13    14 ar  
    30    13    41 1   
    31    14    42 1   
    32    15    16 1   
    33    15    26 1   
    34    15    43 1   
    35    15    44 1   
    36    16    29 1   
    37    16    45 1   
    38    16    46 1   
    39    17    18 1   
    40    17    29 1   
    41    17    47 1   
    42    17    60 1   
    43    18    32 1   
    44    18    48 1   
    45    18    49 1   
    46    19    22 ar  
    47    19    50 1   
    48    20    21 1   
    49    20    32 1   
    50    20    51 1   
    51    20    52 1   
    52    21    29 1   
    53    21    53 1   
    54    21    54 1   
    55    22    23 ar  
    56    23    24 ar  
    57    23    55 1   
    58    24    56 1   
    59    25    26 1   
    60    25    31 2   
    61    26    57 1   
    62    28    58 1   
    63    30    31 1   
    64    30    59 1   
@<TRIPOS>SUBSTRUCTURE
     1 U6C         1 TEMP              0 ****  ****    0 ROOT
