@<TRIPOS>MOLECULE
U6C
   60    64     1     0     0
SMALL
No Charge or Current Charge


@<TRIPOS>ATOM
      1 C1         -52.3940   -15.1020     1.2580 ca         1 U6C      -0.004200
      2 C11        -55.1830   -14.5800     4.4940 cp         1 U6C      -0.032000
      3 C12        -56.4450   -15.2380     4.5010 ca         1 U6C       0.290900
      4 C14        -57.0410   -14.3120     6.5380 ca         1 U6C       0.276900
      5 C15        -55.8110   -13.6020     6.6450 ca         1 U6C       0.268000
      6 C16        -54.8810   -13.7450     5.6020 ca         1 U6C      -0.156000
      7 C18        -56.0510   -12.8540     9.0910 c3         1 U6C       0.261100
      8 C19        -55.7630   -14.2210     9.7060 ca         1 U6C      -0.123300
      9 C2         -53.7290   -15.1320     1.0140 ca         1 U6C      -0.263900
     10 C20        -56.8180   -15.1130     9.9900 ca         1 U6C      -0.100500
     11 C21        -56.5500   -16.3720    10.5550 ca         1 U6C      -0.105500
     12 C22        -55.2280   -16.7480    10.8430 ca         1 U6C      -0.105000
     13 C23        -54.1720   -15.8630    10.5670 ca         1 U6C      -0.105500
     14 C24        -54.4390   -14.6040    10.0010 ca         1 U6C      -0.100500
     15 C25        -55.1710   -15.6860    -2.5310 c3         1 U6C       0.198800
     16 C26        -56.6620   -15.6780    -2.9750 c3         1 U6C       0.159800
     17 C28        -56.2840   -15.0410    -5.3690 c6         1 U6C       0.127800
     18 C29        -56.5770   -15.4280    -6.8500 c6         1 U6C       0.153100
     19 C3         -54.6780   -14.9670     2.0330 ca         1 U6C      -0.008000
     20 C31        -58.6110   -16.5430    -6.2020 c6         1 U6C       0.153100
     21 C32        -58.3650   -16.1770    -4.7080 c6         1 U6C       0.127800
     22 C4         -54.2150   -14.7600     3.3650 cp         1 U6C      -0.089000
     23 C5         -52.8030   -14.7350     3.5960 ca         1 U6C      -0.050000
     24 C6         -51.8790   -14.9050     2.5410 ca         1 U6C      -0.148000
     25 C9         -53.8420   -15.3480    -0.4000 cc         1 U6C       0.573800
     26 N10        -55.0180   -15.4450    -1.0820 nu         1 U6C      -0.845400
     27 N13        -57.3610   -15.1150     5.4910 nb         1 U6C      -0.637000
     28 N17        -55.4890   -12.7650     7.7320 nu         1 U6C      -0.951200
     29 N27        -56.9080   -16.0070    -4.4070 n3         1 U6C      -0.718600
     30 N7         -51.7530   -15.2930     0.0500 na         1 U6C      -0.068400
     31 N8         -52.6610   -15.4500    -1.0110 nd         1 U6C      -0.583100
     32 O30        -58.0030   -15.5550    -7.0670 os         1 U6C      -0.450000
     33 H38        -56.7270   -15.9000     3.6830 h4         1 U6C       0.020100
     34 H39        -57.7990   -14.2270     7.3150 h4         1 U6C       0.021100
     35 H40        -53.9400   -13.2050     5.6430 ha         1 U6C       0.114000
     36 H42        -55.6120   -12.0760     9.7320 h1         1 U6C       0.058700
     37 H43        -57.1360   -12.6780     9.0650 h1         1 U6C       0.058700
     38 H44        -57.8460   -14.8330     9.7730 ha         1 U6C       0.109000
     39 H45        -57.3690   -17.0560    10.7700 ha         1 U6C       0.114000
     40 H46        -55.0210   -17.7230    11.2800 ha         1 U6C       0.114000
     41 H47        -53.1480   -16.1530    10.7900 ha         1 U6C       0.114000
     42 H48        -53.6150   -13.9260     9.7890 ha         1 U6C       0.109000
     43 H50        -54.7320   -16.6580    -2.7930 h1         1 U6C       0.055200
     44 H49        -54.6240   -14.9130    -3.0880 h1         1 U6C       0.055200
     45 H52        -57.0850   -14.6910    -2.7450 h1         1 U6C       0.037200
     46 H51        -57.1930   -16.4060    -2.3470 h1         1 U6C       0.037200
     47 H54        -56.6650   -14.0240    -5.1900 h1         1 U6C       0.041200
     48 H56        -56.0870   -16.3820    -7.0930 h1         1 U6C       0.051450
     49 H57        -56.1780   -14.6570    -7.5240 h1         1 U6C       0.051450
     50 H33        -55.7410   -14.9830     1.8040 ha         1 U6C       0.119000
     51 H58        -59.6900   -16.5840    -6.4040 h1         1 U6C       0.051450
     52 H59        -58.1830   -17.5320    -6.4220 h1         1 U6C       0.051450
     53 H61        -58.9120   -15.2500    -4.4790 h1         1 U6C       0.041200
     54 H60        -58.7950   -16.9680    -4.0770 h1         1 U6C       0.041200
     55 H34        -52.4200   -14.5950     4.6040 ha         1 U6C       0.113000
     56 H35        -50.8070   -14.8870     2.7240 ha         1 U6C       0.121000
     57 H37        -55.8510   -15.3680    -0.5060 hn         1 U6C       0.460000
     58 H41        -54.5950   -12.2760     7.6520 hn         1 U6C       0.472000
     59 H36        -50.7440   -15.3220    -0.0960 hn         1 U6C       0.377000
     60 H55        -55.1940   -15.0070    -5.2350 h1         1 U6C       0.041200
@<TRIPOS>BOND
     1     1     9 ar  
     2     1    24 ar  
     3     1    30 1   
     4     2     3 ar  
     5     2     6 ar  
     6     2    22 1   
     7     3    27 ar  
     8     3    33 1   
     9     4     5 ar  
    10     4    27 ar  
    11     4    34 1   
    12     5     6 ar  
    13     5    28 1   
    14     6    35 1   
    15     7     8 1   
    16     7    28 1   
    17     7    36 1   
    18     7    37 1   
    19     8    10 ar  
    20     8    14 ar  
    21     9    19 ar  
    22     9    25 1   
    23    10    11 ar  
    24    10    38 1   
    25    11    12 ar  
    26    11    39 1   
    27    12    13 ar  
    28    12    40 1   
    29    13    14 ar  
    30    13    41 1   
    31    14    42 1   
    32    15    16 1   
    33    15    26 1   
    34    15    43 1   
    35    15    44 1   
    36    16    29 1   
    37    16    45 1   
    38    16    46 1   
    39    17    18 1   
    40    17    29 1   
    41    17    47 1   
    42    17    60 1   
    43    18    32 1   
    44    18    48 1   
    45    18    49 1   
    46    19    22 ar  
    47    19    50 1   
    48    20    21 1   
    49    20    32 1   
    50    20    51 1   
    51    20    52 1   
    52    21    29 1   
    53    21    53 1   
    54    21    54 1   
    55    22    23 ar  
    56    23    24 ar  
    57    23    55 1   
    58    24    56 1   
    59    25    26 1   
    60    25    31 2   
    61    26    57 1   
    62    28    58 1   
    63    30    31 1   
    64    30    59 1   
@<TRIPOS>SUBSTRUCTURE
     1 U6C         1 TEMP              0 ****  ****    0 ROOT
