@<TRIPOS>MOLECULE
U6D
   69    73     1     0     0
SMALL
No Charge or Current Charge


@<TRIPOS>ATOM
      1 C4          14.9140   -24.6440    28.7940 c6         1 U6D      -0.032200
      2 C14         12.6470   -25.6650    29.2280 cc         1 U6D      -0.094300
      3 C5          14.0260   -25.7310    29.3640 cd         1 U6D      -0.132400
      4 C6          14.3860   -26.9480    30.0490 ca         1 U6D      -0.086800
      5 C11         13.2130   -27.6080    30.2900 ca         1 U6D      -0.041200
      6 C7          15.6280   -27.4650    30.4370 ca         1 U6D      -0.061000
      7 C8          15.6370   -28.7110    31.1010 ca         1 U6D      -0.142000
      8 C9          14.4240   -29.3980    31.3540 ca         1 U6D      -0.093000
      9 C10         13.1890   -28.8460    30.9450 ca         1 U6D      -0.129000
     10 C15         11.8960   -24.5810    28.4740 c6         1 U6D       0.328000
     11 C19         12.5380   -20.9050    29.0420 c3         1 U6D       0.206000
     12 C2          14.1420   -23.7350    27.7820 c6         1 U6D       0.192500
     13 C20         13.6080   -20.3400    28.0790 c3         1 U6D      -0.109100
     14 C21         11.1190   -20.7180    28.4550 c3         1 U6D      -0.109100
     15 C23         10.4730   -24.2600    28.9800 ca         1 U6D      -0.219300
     16 C24         10.1090   -24.2850    30.3460 ca         1 U6D       0.246000
     17 C25          8.8030   -23.9760    30.7500 ca         1 U6D      -0.248000
     18 C26          7.8300   -23.6340    29.7950 ca         1 U6D       0.213100
     19 C27          8.1780   -23.6050    28.4430 ca         1 U6D      -0.248000
     20 C28          9.4820   -23.9130    28.0400 ca         1 U6D       0.246000
     21 C31          6.0750   -23.3110    31.4990 c3         1 U6D       0.160600
     22 C32          4.5810   -22.9130    31.5030 c3         1 U6D       0.162800
     23 C34          2.5810   -22.4800    33.0760 cy         1 U6D       0.153300
     24 C35          3.0470   -22.2400    34.5510 cy         1 U6D      -0.134700
     25 C36          4.4160   -21.8860    33.8810 cy         1 U6D       0.153300
     26 C37          2.3410   -21.1610    35.3780 c3         1 U6D       0.196600
     27 F22         12.6000   -20.1710    30.1810 f          1 U6D      -0.282000
     28 F29          9.7730   -23.8640    26.7200 f          1 U6D      -0.162500
     29 F38          1.0890   -21.5970    35.6600 f          1 U6D      -0.267000
     30 F39         11.0100   -24.5780    31.3100 f          1 U6D      -0.162500
     31 N12         12.1570   -26.8640    29.7880 na         1 U6D      -0.209700
     32 N17         12.7730   -23.3720    28.2860 n3         1 U6D      -0.739600
     33 N33          3.9990   -22.8880    32.8560 nq         1 U6D      -0.719600
     34 O30          6.5320   -23.3180    30.1330 os         1 U6D      -0.340100
     35 H1          15.7950   -25.0830    28.3060 hc         1 U6D       0.051700
     36 H2          15.3080   -24.0310    29.6140 hc         1 U6D       0.051700
     37 H3          16.5510   -26.9260    30.2350 ha         1 U6D       0.112000
     38 H4          16.5820   -29.1460    31.4190 ha         1 U6D       0.110000
     39 H5          14.4430   -30.3580    31.8660 ha         1 U6D       0.109000
     40 H6          12.2530   -29.3660    31.1320 ha         1 U6D       0.112000
     41 H7          15.1100   -24.4540    25.9460 hc         1 U6D       0.042033
     42 H8          13.6770   -25.3880    26.3820 hc         1 U6D       0.042033
     43 H9          13.5030   -23.7690    25.6770 hc         1 U6D       0.042033
     44 H10         11.7390   -25.0180    27.4770 h1         1 U6D       0.083700
     45 H11         13.7630   -22.4420    29.9490 h1         1 U6D       0.053200
     46 H12         12.0550   -22.6510    30.1850 h1         1 U6D       0.053200
     47 H13         14.7360   -22.8180    27.6600 h1         1 U6D       0.058700
     48 H14         14.6140   -20.4810    28.4910 hc         1 U6D       0.046533
     49 H15         13.5590   -20.8390    27.1040 hc         1 U6D       0.046533
     50 H16         13.4540   -19.2670    27.9160 hc         1 U6D       0.046533
     51 H17         10.3590   -21.0900    29.1520 hc         1 U6D       0.046533
     52 H18         10.9150   -19.6580    28.2610 hc         1 U6D       0.046533
     53 H19         11.0140   -21.2640    27.5100 hc         1 U6D       0.046533
     54 H20          8.5710   -24.0020    31.8100 ha         1 U6D       0.149000
     55 H21          7.4320   -23.3390    27.7000 ha         1 U6D       0.149000
     56 H22          6.1850   -24.3050    31.9510 h1         1 U6D       0.049200
     57 H23          6.6460   -22.5870    32.0940 h1         1 U6D       0.049200
     58 H24          4.4710   -21.9220    31.0440 h1         1 U6D       0.050200
     59 H25          4.0220   -23.6350    30.8930 h1         1 U6D       0.050200
     60 H27          1.8260   -23.2660    32.9510 h1         1 U6D       0.053200
     61 H28          3.0850   -23.1580    35.1490 hc         1 U6D       0.086700
     62 H29          5.3020   -22.1400    34.4740 h1         1 U6D       0.053200
     63 H30          4.4830   -20.8510    33.5210 h1         1 U6D       0.053200
     64 H31          2.8860   -20.9910    36.3150 h1         1 U6D       0.045700
     65 H32          2.2790   -20.2260    34.8060 h1         1 U6D       0.045700
     66 H33         11.1830   -27.1460    29.8140 hn         1 U6D       0.350000
     67 C1          14.1000   -24.3770    26.3660 c3         1 U6D      -0.091100
     68 C18         12.7990   -22.3960    29.4270 c3         1 U6D       0.161800
     69 H26          2.2700   -21.5670    32.5510 h1         1 U6D       0.053200
@<TRIPOS>BOND
     1     1     3 1   
     2     1    12 1   
     3     1    35 1   
     4     1    36 1   
     5     2     3 2   
     6     2    10 1   
     7     2    31 1   
     8     3     4 1   
     9     4     5 ar  
    10     4     6 ar  
    11     5     9 ar  
    12     5    31 1   
    13     6     7 ar  
    14     6    37 1   
    15     7     8 ar  
    16     7    38 1   
    17     8     9 ar  
    18     8    39 1   
    19     9    40 1   
    20    10    15 1   
    21    10    32 1   
    22    10    44 1   
    23    11    13 1   
    24    11    14 1   
    25    11    27 1   
    26    11    68 1   
    27    12    32 1   
    28    12    47 1   
    29    12    67 1   
    30    13    48 1   
    31    13    49 1   
    32    13    50 1   
    33    14    51 1   
    34    14    52 1   
    35    14    53 1   
    36    15    16 ar  
    37    15    20 ar  
    38    16    17 ar  
    39    16    30 1   
    40    17    18 ar  
    41    17    54 1   
    42    18    19 ar  
    43    18    34 1   
    44    19    20 ar  
    45    19    55 1   
    46    20    28 1   
    47    21    22 1   
    48    21    34 1   
    49    21    56 1   
    50    21    57 1   
    51    22    33 1   
    52    22    58 1   
    53    22    59 1   
    54    23    24 1   
    55    23    33 1   
    56    23    60 1   
    57    23    69 1   
    58    24    25 1   
    59    24    26 1   
    60    24    61 1   
    61    25    33 1   
    62    25    62 1   
    63    25    63 1   
    64    26    29 1   
    65    26    64 1   
    66    26    65 1   
    67    31    66 1   
    68    32    68 1   
    69    41    67 1   
    70    42    67 1   
    71    43    67 1   
    72    45    68 1   
    73    46    68 1   
@<TRIPOS>SUBSTRUCTURE
     1 U6D         1 TEMP              0 ****  ****    0 ROOT
