@<TRIPOS>MOLECULE
U6D
   69    73     1     0     0
SMALL
abcg2


@<TRIPOS>ATOM
      1 C4          14.8840   -24.5350    28.9230 c6         1 U6D      -0.032200
      2 C14         12.6340   -25.5810    29.2540 cc         1 U6D      -0.094300
      3 C5          13.9880   -25.6210    29.4130 cd         1 U6D      -0.132400
      4 C6          14.2880   -26.8700    30.0410 ca         1 U6D      -0.086800
      5 C11         13.0560   -27.5430    30.2210 ca         1 U6D      -0.041200
      6 C7          15.4690   -27.4930    30.4610 ca         1 U6D      -0.061000
      7 C8          15.3970   -28.7440    31.0450 ca         1 U6D      -0.142000
      8 C9          14.1620   -29.3890    31.2220 ca         1 U6D      -0.093000
      9 C10         12.9790   -28.8000    30.8140 ca         1 U6D      -0.129000
     10 C15         11.9190   -24.4870    28.5210 c6         1 U6D       0.328000
     11 C19         12.4100   -20.9340    29.0320 c3         1 U6D       0.206000
     12 C2          14.1190   -23.6590    27.9100 c6         1 U6D       0.192500
     13 C20         13.3550   -20.3600    27.9960 c3         1 U6D      -0.109100
     14 C21         10.9680   -20.8390    28.5820 c3         1 U6D      -0.109100
     15 C23         10.5280   -24.1900    29.0260 ca         1 U6D      -0.219300
     16 C24         10.1340   -24.1960    30.3550 ca         1 U6D       0.246000
     17 C25          8.8510   -23.9240    30.7970 ca         1 U6D      -0.248000
     18 C26          7.8760   -23.6170    29.8540 ca         1 U6D       0.213100
     19 C27          8.2080   -23.6000    28.4980 ca         1 U6D      -0.248000
     20 C28          9.5000   -23.8860    28.1330 ca         1 U6D       0.246000
     21 C31          6.1800   -23.3980    31.5070 c3         1 U6D       0.160600
     22 C32          4.7170   -23.0010    31.5440 c3         1 U6D       0.162800
     23 C34          2.8080   -22.8070    33.1280 cy         1 U6D       0.153300
     24 C35          3.2230   -22.2350    34.4930 cy         1 U6D      -0.134700
     25 C36          4.6470   -22.2090    33.9140 cy         1 U6D       0.153300
     26 C37          2.6400   -20.9230    34.9280 c3         1 U6D       0.196600
     27 F22         12.5380   -20.1430    30.1970 f          1 U6D      -0.282000
     28 F29          9.7920   -23.8560    26.8270 f          1 U6D      -0.162500
     29 F38          1.2770   -21.0770    35.1820 f          1 U6D      -0.267000
     30 F39         11.0450   -24.4730    31.2980 f          1 U6D      -0.162500
     31 N12         12.0720   -26.7380    29.7180 na         1 U6D      -0.209700
     32 N17         12.7760   -23.3070    28.3870 n3         1 U6D      -0.739600
     33 N33          4.2090   -23.1530    32.8810 nq         1 U6D      -0.719600
     34 O30          6.6070   -23.3260    30.1540 os         1 U6D      -0.340100
     35 H1          15.7770   -24.9480    28.4450 hc         1 U6D       0.051700
     36 H2          15.2520   -23.9260    29.7550 hc         1 U6D       0.051700
     37 H3          16.4260   -27.0030    30.3270 ha         1 U6D       0.112000
     38 H4          16.3040   -29.2370    31.3710 ha         1 U6D       0.110000
     39 H5          14.1360   -30.3670    31.6860 ha         1 U6D       0.109000
     40 H6          12.0300   -29.3020    30.9500 ha         1 U6D       0.112000
     41 H7          15.0780   -24.3520    26.1130 hc         1 U6D       0.042033
     42 H8          13.6980   -25.3360    26.5680 hc         1 U6D       0.042033
     43 H9          13.4410   -23.7380    25.8550 hc         1 U6D       0.042033
     44 H10         11.7750   -24.8630    27.5020 h1         1 U6D       0.083700
     45 H11         13.8030   -22.2880    29.9260 h1         1 U6D       0.053200
     46 H12         12.1430   -22.6350    30.2940 h1         1 U6D       0.053200
     47 H13         14.6590   -22.7180    27.8000 h1         1 U6D       0.058700
     48 H14         14.3890   -20.3750    28.3470 hc         1 U6D       0.046533
     49 H15         13.3000   -20.9390    27.0740 hc         1 U6D       0.046533
     50 H16         13.0870   -19.3300    27.7570 hc         1 U6D       0.046533
     51 H17         10.2840   -21.1950    29.3540 hc         1 U6D       0.046533
     52 H18         10.7070   -19.8090    28.3360 hc         1 U6D       0.046533
     53 H19         10.8160   -21.4430    27.6900 hc         1 U6D       0.046533
     54 H20          8.6510   -23.9530    31.8590 ha         1 U6D       0.149000
     55 H21          7.4620   -23.3700    27.7480 ha         1 U6D       0.149000
     56 H22          6.3020   -24.4150    31.8940 h1         1 U6D       0.049200
     57 H23          6.7770   -22.7230    32.1300 h1         1 U6D       0.049200
     58 H24          4.6020   -21.9710    31.1670 h1         1 U6D       0.050200
     59 H25          4.1480   -23.6560    30.8790 h1         1 U6D       0.050200
     60 H27          2.1100   -23.6460    33.1100 h1         1 U6D       0.053200
     61 H28          3.1300   -22.9780    35.2880 hc         1 U6D       0.086700
     62 H29          5.4630   -22.5530    34.5530 h1         1 U6D       0.053200
     63 H30          4.9100   -21.2190    33.5120 h1         1 U6D       0.053200
     64 H31          3.1190   -20.5620    35.8400 h1         1 U6D       0.045700
     65 H32          2.7530   -20.1640    34.1510 h1         1 U6D       0.045700
     66 H33         11.0900   -26.9590    29.7130 hn         1 U6D       0.350000
     67 C1          14.0730   -24.3120    26.5340 c3         1 U6D      -0.091100
     68 C18         12.8030   -22.3470    29.4780 c3         1 U6D       0.161800
     69 H26          2.4300   -22.0220    32.4570 h1         1 U6D       0.053200
@<TRIPOS>BOND
     1     1     3 1   
     2     1    12 1   
     3     1    35 1   
     4     1    36 1   
     5     2     3 2   
     6     2    10 1   
     7     2    31 1   
     8     3     4 1   
     9     4     5 ar  
    10     4     6 ar  
    11     5     9 ar  
    12     5    31 1   
    13     6     7 ar  
    14     6    37 1   
    15     7     8 ar  
    16     7    38 1   
    17     8     9 ar  
    18     8    39 1   
    19     9    40 1   
    20    10    15 1   
    21    10    32 1   
    22    10    44 1   
    23    11    13 1   
    24    11    14 1   
    25    11    27 1   
    26    11    68 1   
    27    12    32 1   
    28    12    47 1   
    29    12    67 1   
    30    13    48 1   
    31    13    49 1   
    32    13    50 1   
    33    14    51 1   
    34    14    52 1   
    35    14    53 1   
    36    15    16 ar  
    37    15    20 ar  
    38    16    17 ar  
    39    16    30 1   
    40    17    18 ar  
    41    17    54 1   
    42    18    19 ar  
    43    18    34 1   
    44    19    20 ar  
    45    19    55 1   
    46    20    28 1   
    47    21    22 1   
    48    21    34 1   
    49    21    56 1   
    50    21    57 1   
    51    22    33 1   
    52    22    58 1   
    53    22    59 1   
    54    23    24 1   
    55    23    33 1   
    56    23    60 1   
    57    23    69 1   
    58    24    25 1   
    59    24    26 1   
    60    24    61 1   
    61    25    33 1   
    62    25    62 1   
    63    25    63 1   
    64    26    29 1   
    65    26    64 1   
    66    26    65 1   
    67    31    66 1   
    68    32    68 1   
    69    41    67 1   
    70    42    67 1   
    71    43    67 1   
    72    45    68 1   
    73    46    68 1   
@<TRIPOS>SUBSTRUCTURE
     1 U6D         1 TEMP              0 ****  ****    0 ROOT
