@<TRIPOS>MOLECULE
U6E
   44    47     1     0     0
SMALL
abcg2


@<TRIPOS>ATOM
      1 N1          -1.3640    24.0760    51.2970 nb         1 U6E      -0.295000
      2 C2          -2.1890    24.8150    50.5830 ca         1 U6E       0.285000
      3 C4          -0.9650    24.5380    52.4900 ca         1 U6E       0.465900
      4 C5          -1.4540    25.7920    52.9060 ca         1 U6E      -0.102600
      5 C6          -2.3160    26.4350    52.0320 ca         1 U6E       0.124500
      6 C8          -1.9930    27.6020    53.8380 cc         1 U6E       0.406700
      7 C13         -4.3910    30.9560    52.1220 c6         1 U6E      -0.061400
      8 C16         -5.0400    28.1050    52.3310 c6         1 U6E      -0.092900
      9 C23        -10.2360    30.5810    56.2130 cc         1 U6E       0.322300
     10 N22         -9.7470    30.4750    54.9360 nc         1 U6E      -0.711000
     11 C24         -9.2920    30.7750    57.1670 cd         1 U6E      -0.313000
     12 S25         -7.7180    30.8350    56.4640 ss         1 U6E       0.049600
     13 C21         -8.4590    30.5880    54.9200 cd         1 U6E       0.537300
     14 N18         -7.7470    30.5140    53.7480 ns         1 U6E      -0.472400
     15 O19         -5.7190    30.8530    54.6390 o          1 U6E      -0.574100
     16 C14         -5.8490    30.5150    52.2380 c6         1 U6E      -0.136700
     17 C15         -6.0170    29.0850    51.6960 c6         1 U6E      -0.061400
     18 C12         -3.3920    29.9620    52.7120 c6         1 U6E      -0.092900
     19 C11         -3.6050    28.5780    52.1160 c6         1 U6E       0.095300
     20 N7          -2.6530    27.6040    52.6400 na         1 U6E      -0.271300
     21 N9          -1.2630    26.5420    54.0330 nd         1 U6E      -0.549100
     22 N3          -2.7200    25.9820    50.8420 nb         1 U6E      -0.212000
     23 CL1         -2.6410    24.1190    49.0550 cl         1 U6E      -0.140000
     24 N10         -0.1380    23.8010    53.2250 nv         1 U6E      -1.057900
     25 H1          -2.0830    28.4190    54.5360 h5         1 U6E       0.071800
     26 H2          -4.1750    31.0850    51.0580 hc         1 U6E       0.055200
     27 H3          -4.2450    31.9350    52.5810 hc         1 U6E       0.055200
     28 H4          -5.2300    27.9970    53.4040 hc         1 U6E       0.064200
     29 H5          -5.1800    27.1170    51.8870 hc         1 U6E       0.064200
     30 H6         -12.2420    31.2450    55.8780 hc         1 U6E       0.049033
     31 H7         -12.0880    29.5120    56.1180 hc         1 U6E       0.049033
     32 H8         -11.9480    30.6050    57.4960 hc         1 U6E       0.049033
     33 H10         -8.3040    30.3750    52.9160 hn         1 U6E       0.339500
     34 H11         -6.4570    31.1780    51.6120 hc         1 U6E       0.068700
     35 H12         -7.0410    28.7270    51.8230 hc         1 U6E       0.055200
     36 H13         -5.8420    29.1170    50.6180 hc         1 U6E       0.055200
     37 H14         -2.3760    30.3060    52.5070 hc         1 U6E       0.064200
     38 H15         -3.5100    29.9310    53.7960 hc         1 U6E       0.064200
     39 H16         -3.4160    28.6330    51.0390 h1         1 U6E       0.082700
     40 H17          0.1870    22.9100    52.8900 hn         1 U6E       0.511500
     41 H18          0.1800    24.1200    54.1240 hn         1 U6E       0.511500
     42 C17         -6.3920    30.6430    53.6470 c          1 U6E       0.607100
     43 H9          -9.4340    30.8870    58.2300 h4         1 U6E       0.159000
     44 C26        -11.7060    30.4810    56.4420 c3         1 U6E      -0.119400
@<TRIPOS>BOND
     1     1     2 ar  
     2     1     3 ar  
     3     2    22 ar  
     4     2    23 1   
     5     3     4 ar  
     6     3    24 1   
     7     4     5 ar  
     8     4    21 1   
     9     5    20 1   
    10     5    22 ar  
    11     6    20 1   
    12     6    21 2   
    13     6    25 1   
    14     7    16 1   
    15     7    18 1   
    16     7    26 1   
    17     7    27 1   
    18     8    17 1   
    19     8    19 1   
    20     8    28 1   
    21     8    29 1   
    22     9    10 1   
    23     9    11 2   
    24     9    44 1   
    25    10    13 2   
    26    11    12 1   
    27    11    43 1   
    28    12    13 1   
    29    13    14 1   
    30    14    33 1   
    31    14    42 1   
    32    15    42 2   
    33    16    17 1   
    34    16    34 1   
    35    16    42 1   
    36    17    35 1   
    37    17    36 1   
    38    18    19 1   
    39    18    37 1   
    40    18    38 1   
    41    19    20 1   
    42    19    39 1   
    43    24    40 1   
    44    24    41 1   
    45    30    44 1   
    46    31    44 1   
    47    32    44 1   
@<TRIPOS>SUBSTRUCTURE
     1 U6E         1 TEMP              0 ****  ****    0 ROOT
