@<TRIPOS>MOLECULE
U6E
   44    47     1     0     0
SMALL
No Charge or Current Charge


@<TRIPOS>ATOM
      1 N1           0.3340    25.1960    50.7610 nb         1 U6E      -0.295000
      2 C2          -0.6070    25.8170    50.0120 ca         1 U6E       0.285000
      3 C4           0.1670    25.2680    52.0900 ca         1 U6E       0.465900
      4 C5          -0.9320    25.9490    52.6540 ca         1 U6E      -0.102600
      5 C6          -1.8280    26.5440    51.8000 ca         1 U6E       0.124500
      6 C8          -2.4140    26.8430    53.9450 cc         1 U6E       0.406700
      7 C13         -5.1060    30.1440    52.1020 c6         1 U6E      -0.061400
      8 C16         -5.2550    27.1690    52.5330 c6         1 U6E      -0.092900
      9 C23        -10.3490    31.7710    56.3260 cc         1 U6E       0.322300
     10 N22         -9.8350    31.4910    55.0870 nc         1 U6E      -0.711000
     11 C24         -9.6410    31.2840    57.3930 cd         1 U6E      -0.313000
     12 S25         -8.2230    30.4080    56.8530 ss         1 U6E       0.049600
     13 C21         -8.7240    30.7850    55.1980 cd         1 U6E       0.537300
     14 N18         -8.0660    30.4100    54.0610 ns         1 U6E      -0.472400
     15 O19         -6.2830    29.2530    54.8840 o          1 U6E      -0.574100
     16 C14         -6.4420    29.4410    52.4710 c6         1 U6E      -0.136700
     17 C15         -6.4910    27.9540    52.0220 c6         1 U6E      -0.061400
     18 C12         -3.8840    29.3380    52.6120 c6         1 U6E      -0.092900
     19 C11         -3.9310    27.8660    52.1160 c6         1 U6E       0.095300
     20 N7          -2.7630    27.1100    52.6180 na         1 U6E      -0.271300
     21 N9          -1.2780    26.1210    54.0030 nd         1 U6E      -0.549100
     22 N3          -1.6900    26.4940    50.4610 nb         1 U6E      -0.212000
     23 Cl1         -0.4010    25.7340    48.2700 cl         1 U6E      -0.140000
     24 N10          1.1070    24.6440    52.8490 nv         1 U6E      -1.057900
     25 H1          -3.0040    27.1880    54.7870 h5         1 U6E       0.071800
     26 H2          -5.0360    30.2460    51.0100 hc         1 U6E       0.055200
     27 H3          -5.0840    31.1660    52.5080 hc         1 U6E       0.055200
     28 H4          -5.3040    27.0690    53.6260 hc         1 U6E       0.064200
     29 H5          -5.2780    26.1470    52.1300 hc         1 U6E       0.064200
     30 H6         -11.4860    33.5550    55.9530 hc         1 U6E       0.049033
     31 H7         -12.4350    32.0550    55.8980 hc         1 U6E       0.049033
     32 H8         -11.9140    32.7200    57.4570 hc         1 U6E       0.049033
     33 H10         -8.4820    30.7050    53.1910 hn         1 U6E       0.339500
     34 H11         -7.2000    29.9430    51.8530 hc         1 U6E       0.068700
     35 H12         -7.4170    27.4770    52.3740 hc         1 U6E       0.055200
     36 H13         -6.5170    27.9050    50.9240 hc         1 U6E       0.055200
     37 H14         -2.9580    29.8160    52.2640 hc         1 U6E       0.064200
     38 H15         -3.8500    29.3680    53.7100 hc         1 U6E       0.064200
     39 H16         -3.8910    27.8820    51.0170 h1         1 U6E       0.082700
     40 H17          1.6840    23.9350    52.4040 hn         1 U6E       0.511500
     41 H18          0.8830    24.4980    53.8300 hn         1 U6E       0.511500
     42 C17         -6.9090    29.6830    53.9290 c          1 U6E       0.607100
     43 H9          -9.8640    31.3870    58.4470 h4         1 U6E       0.159000
     44 C26        -11.6150    32.5690    56.4130 c3         1 U6E      -0.119400
@<TRIPOS>BOND
     1     1     2 ar  
     2     1     3 ar  
     3     2    22 ar  
     4     2    23 1   
     5     3     4 ar  
     6     3    24 1   
     7     4     5 ar  
     8     4    21 1   
     9     5    20 1   
    10     5    22 ar  
    11     6    20 1   
    12     6    21 2   
    13     6    25 1   
    14     7    16 1   
    15     7    18 1   
    16     7    26 1   
    17     7    27 1   
    18     8    17 1   
    19     8    19 1   
    20     8    28 1   
    21     8    29 1   
    22     9    10 1   
    23     9    11 2   
    24     9    44 1   
    25    10    13 2   
    26    11    12 1   
    27    11    43 1   
    28    12    13 1   
    29    13    14 1   
    30    14    33 1   
    31    14    42 1   
    32    15    42 2   
    33    16    17 1   
    34    16    34 1   
    35    16    42 1   
    36    17    35 1   
    37    17    36 1   
    38    18    19 1   
    39    18    37 1   
    40    18    38 1   
    41    19    20 1   
    42    19    39 1   
    43    24    40 1   
    44    24    41 1   
    45    30    44 1   
    46    31    44 1   
    47    32    44 1   
@<TRIPOS>SUBSTRUCTURE
     1 U6E         1 TEMP              0 ****  ****    0 ROOT
