@<TRIPOS>MOLECULE
U6G
   50    53     1     0     0
SMALL
No Charge or Current Charge


@<TRIPOS>ATOM
      1 C2          76.7650    17.6180    32.1250 ca         1 U6G       0.136000
      2 C3          75.6840    17.4170    32.9950 ca         1 U6G      -0.112500
      3 C4          74.9660    16.2090    32.9590 ca         1 U6G      -0.066500
      4 C5          75.3190    15.1840    32.0500 ca         1 U6G      -0.149600
      5 C6          76.4140    15.4030    31.1760 ca         1 U6G      -0.066500
      6 C7          77.1290    16.6140    31.2170 ca         1 U6G      -0.112500
      7 C8          74.5190    13.8950    32.0390 c          1 U6G       0.610700
      8 O9          73.5720    13.7130    32.7910 o          1 U6G      -0.586100
      9 N10         74.9120    12.9300    31.1370 ns         1 U6G      -0.506900
     10 C11         74.2450    11.6410    30.9490 c3         1 U6G       0.156300
     11 C12         73.2230    11.7060    29.8240 ca         1 U6G      -0.102300
     12 C15         71.3260    11.8690    27.7180 ca         1 U6G      -0.041000
     13 C16         72.6610    11.4670    27.4550 ca         1 U6G      -0.100300
     14 C17         73.1290    11.1430    26.0320 c6         1 U6G      -0.027100
     15 C18         71.9610    10.8670    25.0650 c6         1 U6G      -0.102400
     16 C19         70.8380    11.8990    25.2750 c6         1 U6G       0.096000
     17 C23         67.8970    12.0070    26.0130 ca         1 U6G      -0.137600
     18 C24         68.0380    13.2710    25.3890 ca         1 U6G      -0.082000
     19 C27         65.6450    11.8390    25.0660 ca         1 U6G       0.111000
     20 C30         73.6000    11.4080    28.5030 ca         1 U6G      -0.087000
     21 Cl1         77.6620    19.1300    32.1720 cl         1 U6G      -0.195000
     22 C13         71.8920    12.0640    30.0940 ca         1 U6G      -0.088000
     23 C14         70.9510    12.1300    29.0540 ca         1 U6G      -0.093000
     24 N20         70.3280    11.8320    26.6680 n          1 U6G      -0.216400
     25 O22         68.6940    10.6570    27.8050 o          1 U6G      -0.562100
     26 C25         67.0000    13.8000    24.6020 ca         1 U6G      -0.110000
     27 C26         65.8050    13.0820    24.4350 ca         1 U6G      -0.087000
     28 Cl28        64.1430    10.9440    24.8700 cl         1 U6G      -0.195000
     29 C29         66.6790    11.3070    25.8540 ca         1 U6G      -0.062000
     30 H1          75.4030    18.1970    33.6980 ha         1 U6G       0.133500
     31 H2          74.1300    16.0740    33.6430 ha         1 U6G       0.127500
     32 H3          76.7270    14.6490    30.4580 ha         1 U6G       0.127500
     33 H4          77.9670    16.7730    30.5440 ha         1 U6G       0.133500
     34 H5          75.6990    13.1500    30.5420 hn         1 U6G       0.319500
     35 H6          73.7560    11.3330    31.8830 h1         1 U6G       0.059200
     36 H7          75.0060    10.8850    30.7130 h1         1 U6G       0.059200
     37 H8          73.8080    10.2780    26.0420 hc         1 U6G       0.052200
     38 H9          73.7180    11.9900    25.6540 hc         1 U6G       0.052200
     39 H10         71.5640     9.8570    25.2420 hc         1 U6G       0.052700
     40 H11         72.3140    10.8920    24.0260 hc         1 U6G       0.052700
     41 H12         71.2180    12.9110    25.0760 h1         1 U6G       0.061700
     42 H13         70.0350    11.6930    24.5540 h1         1 U6G       0.061700
     43 H14         68.9420    13.8620    25.5260 ha         1 U6G       0.128000
     44 H15         74.6280    11.1260    28.2880 ha         1 U6G       0.107000
     45 H16         71.5840    12.2920    31.1120 ha         1 U6G       0.117000
     46 H17         69.9270    12.4090    29.2940 ha         1 U6G       0.129000
     47 H18         67.1200    14.7710    24.1260 ha         1 U6G       0.122000
     48 H19         65.0010    13.4900    23.8280 ha         1 U6G       0.132000
     49 H20         66.5340    10.3420    26.3350 ha         1 U6G       0.143000
     50 C21         68.9880    11.4130    26.8850 c          1 U6G       0.611700
@<TRIPOS>BOND
     1     1     2 ar  
     2     1     6 ar  
     3     1    21 1   
     4     2     3 ar  
     5     2    30 1   
     6     3     4 ar  
     7     3    31 1   
     8     4     5 ar  
     9     4     7 1   
    10     5     6 ar  
    11     5    32 1   
    12     6    33 1   
    13     7     8 2   
    14     7     9 1   
    15     9    10 1   
    16     9    34 1   
    17    10    11 1   
    18    10    35 1   
    19    10    36 1   
    20    11    20 ar  
    21    11    22 ar  
    22    12    13 ar  
    23    12    23 ar  
    24    12    24 1   
    25    13    14 1   
    26    13    20 ar  
    27    14    15 1   
    28    14    37 1   
    29    14    38 1   
    30    15    16 1   
    31    15    39 1   
    32    15    40 1   
    33    16    24 1   
    34    16    41 1   
    35    16    42 1   
    36    17    18 ar  
    37    17    29 ar  
    38    17    50 1   
    39    18    26 ar  
    40    18    43 1   
    41    19    27 ar  
    42    19    28 1   
    43    19    29 ar  
    44    20    44 1   
    45    22    23 ar  
    46    22    45 1   
    47    23    46 1   
    48    24    50 1   
    49    25    50 2   
    50    26    27 ar  
    51    26    47 1   
    52    27    48 1   
    53    29    49 1   
@<TRIPOS>SUBSTRUCTURE
     1 U6G         1 TEMP              0 ****  ****    0 ROOT
