@<TRIPOS>MOLECULE
U6G
   50    53     1     0     0
SMALL
abcg2


@<TRIPOS>ATOM
      1 C2          78.1690    16.3390    31.2050 ca         1 U6G       0.136000
      2 C3          77.2320    16.8320    32.1020 ca         1 U6G      -0.112500
      3 C4          76.0340    16.1570    32.2640 ca         1 U6G      -0.066500
      4 C5          75.7750    14.9860    31.5570 ca         1 U6G      -0.149600
      5 C6          76.7260    14.5140    30.6570 ca         1 U6G      -0.066500
      6 C7          77.9230    15.1890    30.4730 ca         1 U6G      -0.112500
      7 C8          74.4550    14.3120    31.7550 c          1 U6G       0.610700
      8 O9          73.4500    14.9560    32.0190 o          1 U6G      -0.586100
      9 N10         74.4490    12.9730    31.6340 ns         1 U6G      -0.506900
     10 C11         73.2330    12.2040    31.7280 c3         1 U6G       0.156300
     11 C12         72.3500    12.2920    30.5060 ca         1 U6G      -0.102300
     12 C15         70.6980    12.3060    28.2460 ca         1 U6G      -0.041000
     13 C16         72.0600    12.5740    28.1080 ca         1 U6G      -0.100300
     14 C17         72.6750    12.9360    26.7810 c6         1 U6G      -0.027100
     15 C18         71.7120    12.7880    25.6120 c6         1 U6G      -0.102400
     16 C19         70.3130    13.2040    26.0330 c6         1 U6G       0.096000
     17 C23         68.0890    11.3670    25.7140 ca         1 U6G      -0.137600
     18 C24         67.2250    12.4490    25.5840 ca         1 U6G      -0.082000
     19 C27         67.0890    10.3490    23.7940 ca         1 U6G       0.111000
     20 C30         72.8630    12.5570    29.2480 ca         1 U6G      -0.087000
     21 CL1         79.6650    17.1800    30.9890 cl         1 U6G      -0.195000
     22 C13         70.9800    12.0650    30.6270 ca         1 U6G      -0.088000
     23 C14         70.1630    12.0750    29.5130 ca         1 U6G      -0.093000
     24 N20         69.8560    12.3220    27.1050 n          1 U6G      -0.216400
     25 O22         69.0130    10.2580    27.5630 o          1 U6G      -0.562100
     26 C25         66.2910    12.4670    24.5580 ca         1 U6G      -0.110000
     27 C26         66.2210    11.4210    23.6500 ca         1 U6G      -0.087000
     28 CL28        67.0150     9.0350    22.6680 cl         1 U6G      -0.195000
     29 C29         68.0120    10.3020    24.8250 ca         1 U6G      -0.062000
     30 H1          77.4310    17.7330    32.6670 ha         1 U6G       0.133500
     31 H2          75.2990    16.5460    32.9560 ha         1 U6G       0.127500
     32 H3          76.5410    13.6290    30.0620 ha         1 U6G       0.127500
     33 H4          78.6510    14.8220    29.7620 ha         1 U6G       0.133500
     34 H5          75.3140    12.4760    31.5060 hn         1 U6G       0.319500
     35 H6          72.6680    12.5050    32.6130 h1         1 U6G       0.059200
     36 H7          73.5260    11.1650    31.8890 h1         1 U6G       0.059200
     37 H8          73.5740    12.3370    26.6150 hc         1 U6G       0.052200
     38 H9          73.0150    13.9740    26.8410 hc         1 U6G       0.052200
     39 H10         71.6770    11.7530    25.2610 hc         1 U6G       0.052700
     40 H11         72.0430    13.3980    24.7710 hc         1 U6G       0.052700
     41 H12         70.3060    14.2330    26.3990 h1         1 U6G       0.061700
     42 H13         69.6300    13.1570    25.1910 h1         1 U6G       0.061700
     43 H14         67.2730    13.2750    26.2820 ha         1 U6G       0.128000
     44 H15         73.9210    12.7620    29.1290 ha         1 U6G       0.107000
     45 H16         70.5440    11.8870    31.6030 ha         1 U6G       0.117000
     46 H17         69.1000    11.9220    29.6330 ha         1 U6G       0.129000
     47 H18         65.6120    13.3030    24.4600 ha         1 U6G       0.122000
     48 H19         65.5000    11.4400    22.8440 ha         1 U6G       0.132000
     49 H20         68.6710     9.4500    24.9300 ha         1 U6G       0.143000
     50 C21         69.0340    11.2580    26.8690 c          1 U6G       0.611700
@<TRIPOS>BOND
     1     1     2 ar  
     2     1     6 ar  
     3     1    21 1   
     4     2     3 ar  
     5     2    30 1   
     6     3     4 ar  
     7     3    31 1   
     8     4     5 ar  
     9     4     7 1   
    10     5     6 ar  
    11     5    32 1   
    12     6    33 1   
    13     7     8 2   
    14     7     9 1   
    15     9    10 1   
    16     9    34 1   
    17    10    11 1   
    18    10    35 1   
    19    10    36 1   
    20    11    20 ar  
    21    11    22 ar  
    22    12    13 ar  
    23    12    23 ar  
    24    12    24 1   
    25    13    14 1   
    26    13    20 ar  
    27    14    15 1   
    28    14    37 1   
    29    14    38 1   
    30    15    16 1   
    31    15    39 1   
    32    15    40 1   
    33    16    24 1   
    34    16    41 1   
    35    16    42 1   
    36    17    18 ar  
    37    17    29 ar  
    38    17    50 1   
    39    18    26 ar  
    40    18    43 1   
    41    19    27 ar  
    42    19    28 1   
    43    19    29 ar  
    44    20    44 1   
    45    22    23 ar  
    46    22    45 1   
    47    23    46 1   
    48    24    50 1   
    49    25    50 2   
    50    26    27 ar  
    51    26    47 1   
    52    27    48 1   
    53    29    49 1   
@<TRIPOS>SUBSTRUCTURE
     1 U6G         1 TEMP              0 ****  ****    0 ROOT
