@<TRIPOS>MOLECULE
U6H
   58    62     1     0     0
SMALL
bcc


@<TRIPOS>ATOM
      1 C27        -12.6400    28.7910    48.0460 c3         1 U6H       0.126700
      2 O26        -11.7250    29.2950    48.9970 os         1 U6H      -0.320900
      3 C24        -10.4330    28.9310    48.9020 ca         1 U6H       0.168100
      4 C25         -9.5740    29.4940    49.8420 ca         1 U6H      -0.230000
      5 C23         -9.9310    28.0550    47.9420 ca         1 U6H      -0.238000
      6 C22         -8.5730    27.7650    47.9550 ca         1 U6H      -0.068000
      7 C21         -7.7030    28.3170    48.8810 ca         1 U6H      -0.184000
      8 C20         -8.2140    29.1970    49.8410 ca         1 U6H       0.109600
      9 N19         -7.4440    29.8020    50.8390 ns         1 U6H      -0.477100
     10 C17         -6.0910    29.9140    50.9350 c          1 U6H       0.677100
     11 O18         -5.3220    29.4640    50.1050 o          1 U6H      -0.568100
     12 C14         -5.6370    30.6700    52.1780 c6         1 U6H      -0.143700
     13 C15         -4.1570    31.0490    52.1330 c6         1 U6H      -0.059900
     14 C16         -3.2070    29.8730    52.3470 c6         1 U6H      -0.093400
     15 C13         -5.9350    29.8810    53.4620 c6         1 U6H      -0.059900
     16 C12         -5.0310    28.6640    53.6140 c6         1 U6H      -0.093400
     17 C11         -3.5690    29.0990    53.6100 c6         1 U6H       0.076000
     18 N7          -2.6710    27.9680    53.8130 na         1 U6H      -0.247000
     19 C6          -2.5090    26.8650    53.0260 ca         1 U6H       0.457800
     20 N3          -3.1360    26.5480    51.8960 nb         1 U6H      -0.736000
     21 C8          -1.7970    27.8190    54.8490 cc         1 U6H       0.400700
     22 N9          -1.0940    26.7240    54.7950 nd         1 U6H      -0.551100
     23 C5          -1.5280    26.1100    53.6540 ca         1 U6H      -0.232200
     24 C4          -1.1750    24.9000    53.0250 ca         1 U6H       0.787200
     25 N10         -0.2550    24.0720    53.5220 nv         1 U6H      -0.955500
     26 N1          -1.8010    24.5790    51.8920 nb         1 U6H      -0.831000
     27 C2          -2.7290    25.3960    51.3910 cp         1 U6H       0.774500
     28 C28         -3.3710    24.9580    50.1280 cp         1 U6H      -0.108500
     29 C29         -3.0180    23.7590    49.5140 ca         1 U6H      -0.202800
     30 C30         -3.6490    23.3950    48.3350 ca         1 U6H       0.380200
     31 N31         -4.5850    24.1270    47.7430 nb         1 U6H      -0.658000
     32 C32         -4.9200    25.2700    48.3300 ca         1 U6H       0.380200
     33 C33         -4.3520    25.7280    49.5080 ca         1 U6H      -0.202800
     34 H1         -13.6100    29.2150    48.2950 h1         1 U6H       0.041033
     35 H2         -12.3780    29.0900    47.0280 h1         1 U6H       0.041033
     36 H3         -12.7140    27.7010    48.0840 h1         1 U6H       0.041033
     37 H4          -9.9800    30.1770    50.5800 ha         1 U6H       0.139000
     38 H5         -10.5660    27.5970    47.1970 ha         1 U6H       0.138000
     39 H6          -8.1780    27.0800    47.2160 ha         1 U6H       0.133000
     40 H7          -6.6580    28.0620    48.8500 ha         1 U6H       0.163000
     41 H8          -7.9790    30.2910    51.5410 hn         1 U6H       0.314500
     42 H9          -6.2240    31.5950    52.2150 hc         1 U6H       0.059700
     43 H10         -3.9150    31.5480    51.1930 hc         1 U6H       0.048200
     44 H11         -3.9890    31.7880    52.9210 hc         1 U6H       0.048200
     45 H12         -3.2330    29.2080    51.4860 hc         1 U6H       0.070950
     46 H13         -2.1830    30.2460    52.4350 hc         1 U6H       0.070950
     47 H14         -5.7780    30.5530    54.3100 hc         1 U6H       0.048200
     48 H15         -6.9810    29.5740    53.5090 hc         1 U6H       0.048200
     49 H16         -5.2590    28.1530    54.5510 hc         1 U6H       0.070950
     50 H17         -5.2120    27.9480    52.8080 hc         1 U6H       0.070950
     51 H18         -3.4110    29.7520    54.4740 h1         1 U6H       0.051700
     52 H19         -1.7240    28.5670    55.6260 h5         1 U6H       0.063800
     53 H20          0.0070    23.2430    53.0170 hn         1 U6H       0.451300
     54 H21          0.2690    24.3150    54.3440 hn         1 U6H       0.451300
     55 H22         -2.2630    23.1180    49.9460 ha         1 U6H       0.164000
     56 H23         -3.3810    22.4640    47.8480 h4         1 U6H       0.016600
     57 H24         -5.6860    25.8610    47.8390 h4         1 U6H       0.016600
     58 H25         -4.6690    26.6710    49.9290 ha         1 U6H       0.164000
@<TRIPOS>BOND
     1     1     2 1   
     2     1    34 1   
     3     1    35 1   
     4     1    36 1   
     5     2     3 1   
     6     3     4 ar  
     7     3     5 ar  
     8     4     8 ar  
     9     4    37 1   
    10     5     6 ar  
    11     5    38 1   
    12     6     7 ar  
    13     6    39 1   
    14     7     8 ar  
    15     7    40 1   
    16     8     9 1   
    17     9    10 1   
    18     9    41 1   
    19    10    11 2   
    20    10    12 1   
    21    12    13 1   
    22    12    15 1   
    23    12    42 1   
    24    13    14 1   
    25    13    43 1   
    26    13    44 1   
    27    14    17 1   
    28    14    45 1   
    29    14    46 1   
    30    15    16 1   
    31    15    47 1   
    32    15    48 1   
    33    16    17 1   
    34    16    49 1   
    35    16    50 1   
    36    17    18 1   
    37    17    51 1   
    38    18    19 1   
    39    18    21 1   
    40    19    20 ar  
    41    19    23 ar  
    42    20    27 ar  
    43    21    22 2   
    44    21    52 1   
    45    22    23 1   
    46    23    24 ar  
    47    24    25 1   
    48    24    26 ar  
    49    25    53 1   
    50    25    54 1   
    51    26    27 ar  
    52    27    28 1   
    53    28    29 ar  
    54    28    33 ar  
    55    29    30 ar  
    56    29    55 1   
    57    30    31 ar  
    58    30    56 1   
    59    31    32 ar  
    60    32    33 ar  
    61    32    57 1   
    62    33    58 1   
@<TRIPOS>SUBSTRUCTURE
     1 U6H         1 TEMP              0 ****  ****    0 ROOT
