@<TRIPOS>MOLECULE
U6H
   58    62     1     0     0
SMALL
No Charge or Current Charge


@<TRIPOS>ATOM
      1 C27        -12.8520    30.1300    47.2860 c3         1 U6H       0.149900
      2 O26        -11.8820    30.4040    48.3120 os         1 U6H      -0.344100
      3 C24        -10.7590    29.6230    48.4900 ca         1 U6H       0.168100
      4 C25         -9.8740    29.9740    49.5210 ca         1 U6H      -0.212000
      5 C23        -10.4780    28.5020    47.6830 ca         1 U6H      -0.220000
      6 C22         -9.3170    27.7470    47.9160 ca         1 U6H      -0.050000
      7 C21         -8.4360    28.1050    48.9500 ca         1 U6H      -0.166000
      8 C20         -8.7070    29.2260    49.7650 ca         1 U6H       0.017000
      9 N19         -7.8670    29.6530    50.8290 ns         1 U6H      -0.151000
     10 C17         -6.6730    29.1580    51.3370 c          1 U6H       0.610100
     11 O18         -6.1030    28.1680    50.8970 o          1 U6H      -0.568100
     12 C14         -6.0900    29.9580    52.5320 c6         1 U6H      -0.143700
     13 C15         -4.7480    30.6810    52.2260 c6         1 U6H      -0.059900
     14 C16         -3.5450    29.7070    52.3260 c6         1 U6H      -0.093400
     15 C13         -6.0730    29.1810    53.8780 c6         1 U6H      -0.059900
     16 C12         -4.8590    28.2210    53.9640 c6         1 U6H      -0.093400
     17 C11         -3.5270    28.9770    53.6990 c6         1 U6H       0.105300
     18 N7          -2.3490    28.0880    53.8360 na         1 U6H      -0.276300
     19 C6          -2.0990    26.9950    53.0480 ca         1 U6H       0.129500
     20 N3          -2.7490    26.4320    52.0110 nb         1 U6H      -0.210000
     21 C8          -1.3160    28.2050    54.7680 cc         1 U6H       0.400700
     22 N9          -0.4090    27.2230    54.6060 nd         1 U6H      -0.551100
     23 C5          -0.9210    26.4830    53.5300 ca         1 U6H      -0.101600
     24 C4          -0.4000    25.3330    52.9050 ca         1 U6H       0.458900
     25 N10          0.7610    24.7460    53.3000 nv         1 U6H      -1.065900
     26 N1          -1.0300    24.7600    51.8700 nb         1 U6H      -0.305000
     27 C2          -2.1900    25.3300    51.4560 cp         1 U6H       0.248500
     28 C28         -2.9090    24.6930    50.2950 cp         1 U6H      -0.108500
     29 C29         -2.4180    23.5330    49.6370 ca         1 U6H      -0.119500
     30 C30         -3.1230    22.9730    48.5570 ca         1 U6H       0.314900
     31 N31         -4.2830    23.4850    48.0860 nb         1 U6H      -0.658000
     32 C32         -4.7700    24.5890    48.6960 ca         1 U6H       0.314900
     33 C33         -4.1290    25.2120    49.7810 ca         1 U6H      -0.119500
     34 H1         -13.6610    30.8700    47.3200 h1         1 U6H       0.041033
     35 H2         -12.3910    30.1770    46.2910 h1         1 U6H       0.041033
     36 H3         -13.2950    29.1350    47.4230 h1         1 U6H       0.041033
     37 H4         -10.1000    30.8400    50.1370 ha         1 U6H       0.121000
     38 H5         -11.1420    28.2020    46.8770 ha         1 U6H       0.120000
     39 H6          -9.0980    26.8810    47.2930 ha         1 U6H       0.115000
     40 H7          -7.5490    27.4970    49.0970 ha         1 U6H       0.145000
     41 H8          -8.2070    30.4780    51.3060 hn         1 U6H       0.148000
     42 H9          -6.8130    30.7710    52.6890 hc         1 U6H       0.059700
     43 H10         -4.7800    31.1450    51.2310 hc         1 U6H       0.048200
     44 H11         -4.6040    31.5000    52.9450 hc         1 U6H       0.048200
     45 H12         -3.5900    28.9810    51.5050 hc         1 U6H       0.070950
     46 H13         -2.6080    30.2660    52.1910 hc         1 U6H       0.070950
     47 H14         -6.0220    29.8970    54.7110 hc         1 U6H       0.048200
     48 H15         -7.0110    28.6220    54.0100 hc         1 U6H       0.048200
     49 H16         -4.8290    27.7540    54.9580 hc         1 U6H       0.070950
     50 H17         -4.9860    27.4020    53.2440 hc         1 U6H       0.070950
     51 H18         -3.4340    29.7510    54.4750 h1         1 U6H       0.051700
     52 H19         -1.2840    28.9970    55.5080 h5         1 U6H       0.063800
     53 H20          1.2280    24.1260    52.6440 hn         1 U6H       0.506500
     54 H21          1.3580    25.2820    53.9250 hn         1 U6H       0.506500
     55 H22         -1.4930    23.0570    49.9520 ha         1 U6H       0.146000
     56 H23         -2.7470    22.0840    48.0520 h4         1 U6H       0.016600
     57 H24         -5.7040    24.9880    48.3030 h4         1 U6H       0.016600
     58 H25         -4.5890    26.0960    50.2120 ha         1 U6H       0.146000
@<TRIPOS>BOND
     1     1     2 1   
     2     1    34 1   
     3     1    35 1   
     4     1    36 1   
     5     2     3 1   
     6     3     4 ar  
     7     3     5 ar  
     8     4     8 ar  
     9     4    37 1   
    10     5     6 ar  
    11     5    38 1   
    12     6     7 ar  
    13     6    39 1   
    14     7     8 ar  
    15     7    40 1   
    16     8     9 1   
    17     9    10 1   
    18     9    41 1   
    19    10    11 2   
    20    10    12 1   
    21    12    13 1   
    22    12    15 1   
    23    12    42 1   
    24    13    14 1   
    25    13    43 1   
    26    13    44 1   
    27    14    17 1   
    28    14    45 1   
    29    14    46 1   
    30    15    16 1   
    31    15    47 1   
    32    15    48 1   
    33    16    17 1   
    34    16    49 1   
    35    16    50 1   
    36    17    18 1   
    37    17    51 1   
    38    18    19 1   
    39    18    21 1   
    40    19    20 ar  
    41    19    23 ar  
    42    20    27 ar  
    43    21    22 2   
    44    21    52 1   
    45    22    23 1   
    46    23    24 ar  
    47    24    25 1   
    48    24    26 ar  
    49    25    53 1   
    50    25    54 1   
    51    26    27 ar  
    52    27    28 1   
    53    28    29 ar  
    54    28    33 ar  
    55    29    30 ar  
    56    29    55 1   
    57    30    31 ar  
    58    30    56 1   
    59    31    32 ar  
    60    32    33 ar  
    61    32    57 1   
    62    33    58 1   
@<TRIPOS>SUBSTRUCTURE
     1 U6H         1 TEMP              0 ****  ****    0 ROOT
