@<TRIPOS>MOLECULE
U6K
   52    56     1     0     0
SMALL
bcc


@<TRIPOS>ATOM
      1 C1         -37.1120   -35.4060    -3.3660 c6         1 U6K       0.347700
      2 C2         -35.9330   -33.8170    -2.1510 c2         1 U6K       0.645100
      3 C3         -34.7240   -34.8660    -3.9800 c5         1 U6K       0.476700
      4 C4         -36.1230   -35.1740    -4.5230 c5         1 U6K      -0.050500
      5 C5         -35.8580   -36.4420    -5.2870 c2         1 U6K      -0.223200
      6 C6         -34.7330   -36.9850    -4.8240 c2         1 U6K       0.021000
      7 C8         -30.8340   -37.0270    -4.7120 c5         1 U6K       0.148100
      8 C11        -28.4180   -40.4400    -6.7540 ca         1 U6K      -0.147000
      9 C12        -28.1730   -41.4800    -7.5970 ca         1 U6K      -0.078000
     10 C13        -29.1440   -41.8900    -8.5410 ca         1 U6K      -0.180300
     11 C14        -28.9460   -42.9620    -9.4320 ca         1 U6K      -0.066000
     12 C15        -29.9400   -43.2920   -10.3120 ca         1 U6K      -0.262300
     13 C16        -31.1300   -42.5390   -10.2870 ca         1 U6K       0.427200
     14 C17        -30.3780   -41.1970    -8.5970 ca         1 U6K       0.437600
     15 C20        -32.3070   -37.6420    -2.9680 c5         1 U6K       0.075100
     16 N1         -38.4360   -35.5980    -3.9120 n8         1 U6K      -0.870800
     17 N2         -37.0640   -34.3550    -2.3680 n2         1 U6K      -0.709900
     18 N3         -34.7560   -34.1030    -2.7700 nu         1 U6K      -0.882200
     19 N4         -34.1300   -36.2040    -3.8340 nh         1 U6K      -0.651400
     20 C7         -32.7420   -36.3010    -3.5580 c5         1 U6K       0.411300
     21 O1         -31.9440   -36.1410    -4.7270 os         1 U6K      -0.436600
     22 C9         -30.9910   -38.0280    -5.8480 c3         1 U6K       0.118400
     23 O2         -29.7760   -38.7490    -5.9210 os         1 U6K      -0.323900
     24 C10        -29.6560   -39.7490    -6.8070 ca         1 U6K       0.154100
     25 N5         -31.3510   -41.5370    -9.4760 nb         1 U6K      -0.671000
     26 C18        -30.6190   -40.1180    -7.7150 ca         1 U6K      -0.275300
     27 C19        -30.8210   -37.6740    -3.3310 c5         1 U6K       0.087100
     28 O3         -30.0730   -36.8590    -2.4640 oh         1 U6K      -0.585800
     29 O4         -32.5650   -37.6620    -1.5920 oh         1 U6K      -0.574800
     30 H22        -36.8270   -36.3480    -2.8780 h2         1 U6K       0.080700
     31 H3         -35.8490   -33.0400    -1.3930 h5         1 U6K       0.027800
     32 H4         -34.1600   -34.2990    -4.7310 h2         1 U6K       0.053700
     33 H5         -36.4840   -34.3430    -5.1360 hc         1 U6K       0.070700
     34 H6         -36.5370   -36.8970    -5.9900 ha         1 U6K       0.163000
     35 H7         -34.2990   -37.9340    -5.1090 h4         1 U6K       0.149000
     36 H9         -29.9120   -36.4570    -4.8750 h1         1 U6K       0.099700
     37 H13        -27.2270   -42.0070    -7.5520 ha         1 U6K       0.137000
     38 H14        -28.0110   -43.5100    -9.4110 ha         1 U6K       0.136000
     39 H15        -29.8310   -44.1080   -11.0130 ha         1 U6K       0.143000
     40 H16        -31.9290   -42.7860   -10.9790 h4         1 U6K       0.018100
     41 H20        -32.8180   -38.4660    -3.4810 h1         1 U6K       0.053700
     42 H23        -39.0830   -35.8010    -3.1590 hn         1 U6K       0.343300
     43 H2         -38.7550   -34.7270    -4.3220 hn         1 U6K       0.343300
     44 H24        -33.9910   -33.4730    -2.5970 hn         1 U6K       0.430800
     45 H8         -32.5050   -35.5090    -2.8380 h2         1 U6K       0.088700
     46 H11        -31.1830   -37.4950    -6.7870 h1         1 U6K       0.049700
     47 H10        -31.8350   -38.7050    -5.6700 h1         1 U6K       0.049700
     48 H17        -31.5730   -39.6120    -7.7870 ha         1 U6K       0.155000
     49 H18        -30.4260   -38.6980    -3.3580 h1         1 U6K       0.066700
     50 H19        -30.3740   -37.0340    -1.5650 ho         1 U6K       0.421000
     51 H21        -32.5720   -38.5760    -1.2900 ho         1 U6K       0.414000
     52 H12        -27.6760   -40.1280    -6.0300 ha         1 U6K       0.149000
@<TRIPOS>BOND
     1     1     4 1   
     2     1    16 1   
     3     1    17 1   
     4     1    30 1   
     5     2    17 2   
     6     2    18 1   
     7     2    31 1   
     8     3     4 1   
     9     3    18 1   
    10     3    19 1   
    11     3    32 1   
    12     4     5 1   
    13     4    33 1   
    14     5     6 2   
    15     5    34 1   
    16     6    19 1   
    17     6    35 1   
    18     7    21 1   
    19     7    22 1   
    20     7    27 1   
    21     7    36 1   
    22     8     9 ar  
    23     8    24 ar  
    24     8    52 1   
    25     9    10 ar  
    26     9    37 1   
    27    10    11 ar  
    28    10    14 ar  
    29    11    12 ar  
    30    11    38 1   
    31    12    13 ar  
    32    12    39 1   
    33    13    25 ar  
    34    13    40 1   
    35    14    25 ar  
    36    14    26 ar  
    37    15    20 1   
    38    15    27 1   
    39    15    29 1   
    40    15    41 1   
    41    16    42 1   
    42    16    43 1   
    43    18    44 1   
    44    19    20 1   
    45    20    21 1   
    46    20    45 1   
    47    22    23 1   
    48    22    46 1   
    49    22    47 1   
    50    23    24 1   
    51    24    26 ar  
    52    26    48 1   
    53    27    28 1   
    54    27    49 1   
    55    28    50 1   
    56    29    51 1   
@<TRIPOS>SUBSTRUCTURE
     1 U6K         1 TEMP              0 ****  ****    0 ROOT
