@<TRIPOS>MOLECULE
U6K
   52    56     1     0     0
SMALL
No Charge or Current Charge


@<TRIPOS>ATOM
      1 C1         -37.4230   -35.1400    -3.7120 c6         1 U6K       0.347700
      2 C2         -36.3520   -34.2000    -1.8660 c2         1 U6K       0.645100
      3 C3         -34.8360   -35.0910    -3.3760 c5         1 U6K       0.476700
      4 C4         -36.0360   -35.2390    -4.3900 c5         1 U6K      -0.050500
      5 C5         -35.7780   -36.5910    -5.0270 c2         1 U6K      -0.273200
      6 C6         -34.7090   -37.1530    -4.4760 c2         1 U6K      -0.029000
      7 C8         -30.8950   -36.9090    -4.9540 c5         1 U6K       0.171300
      8 C11        -28.2660   -40.2750    -7.1040 ca         1 U6K      -0.129000
      9 C12        -28.0060   -41.3650    -7.9480 ca         1 U6K      -0.060000
     10 C13        -29.0530   -41.9360    -8.6950 ca         1 U6K      -0.115000
     11 C14        -28.8010   -43.0290    -9.5430 ca         1 U6K      -0.048000
     12 C15        -29.8740   -43.5660   -10.2680 ca         1 U6K      -0.179000
     13 C16        -31.1490   -42.9980   -10.1220 ca         1 U6K       0.361900
     14 C17        -30.3700   -41.4180    -8.6010 ca         1 U6K       0.307000
     15 C20        -32.0130   -37.5380    -2.9280 c5         1 U6K       0.098300
     16 N1         -38.5450   -34.7050    -4.5110 n8         1 U6K      -0.981200
     17 N2         -37.3540   -34.1470    -2.6710 n2         1 U6K      -0.709900
     18 N3         -35.3720   -35.1700    -2.0120 nu         1 U6K      -0.937400
     19 N4         -34.1200   -36.3760    -3.4850 nh         1 U6K      -0.651400
     20 C7         -32.6390   -36.2320    -3.5320 c5         1 U6K       0.434500
     21 O1         -32.1590   -36.1870    -4.8900 os         1 U6K      -0.483000
     22 C9         -31.0490   -38.0710    -5.9670 c3         1 U6K       0.141600
     23 O2         -29.7570   -38.6790    -6.1550 os         1 U6K      -0.347100
     24 C10        -29.5630   -39.7510    -7.0010 ca         1 U6K       0.154100
     25 N5         -31.3960   -41.9460    -9.3070 nb         1 U6K      -0.671000
     26 C18        -30.6110   -40.3260    -7.7510 ca         1 U6K      -0.192000
     27 C19        -30.5740   -37.3740    -3.4850 c5         1 U6K       0.110300
     28 O3         -29.8490   -36.3930    -2.7250 oh         1 U6K      -0.708000
     29 O4         -32.0370   -37.6180    -1.4860 oh         1 U6K      -0.697000
     30 H22        -37.6910   -36.1150    -3.2670 h2         1 U6K       0.080700
     31 H3         -36.2300   -33.5400    -1.0030 h5         1 U6K       0.027800
     32 H4         -34.2100   -34.2070    -3.5660 h2         1 U6K       0.053700
     33 H5         -35.9870   -34.4400    -5.1380 hc         1 U6K       0.070700
     34 H6         -36.3710   -37.0400    -5.8260 ha         1 U6K       0.213000
     35 H7         -34.2760   -38.1210    -4.7480 h4         1 U6K       0.199000
     36 H9         -30.1160   -36.2310    -5.3300 h1         1 U6K       0.099700
     37 H13        -26.9960   -41.7630    -8.0200 ha         1 U6K       0.119000
     38 H14        -27.8020   -43.4510    -9.6380 ha         1 U6K       0.118000
     39 H15        -29.7280   -44.4100   -10.9360 ha         1 U6K       0.125000
     40 H16        -32.0000   -43.3960   -10.6740 h4         1 U6K       0.018100
     41 H20        -32.4830   -38.4330    -3.3590 h1         1 U6K       0.053700
     42 H23        -39.3140   -34.5600    -3.8520 hn         1 U6K       0.398500
     43 H2         -38.3280   -33.7520    -4.8080 hn         1 U6K       0.398500
     44 H24        -34.6980   -35.1870    -1.2560 hn         1 U6K       0.486000
     45 H8         -32.2850   -35.3480    -2.9810 h2         1 U6K       0.088700
     46 H11        -31.4230   -37.6660    -6.9160 h1         1 U6K       0.049700
     47 H10        -31.7740   -38.8000    -5.5850 h1         1 U6K       0.049700
     48 H17        -31.6220   -39.9380    -7.6890 ha         1 U6K       0.137000
     49 H18        -30.0350   -38.3330    -3.4780 h1         1 U6K       0.066700
     50 H19        -30.1300   -36.5500    -1.7890 ho         1 U6K       0.520000
     51 H21        -32.9910   -37.6540    -1.2300 ho         1 U6K       0.513000
     52 H12        -27.4590   -39.8320    -6.5260 ha         1 U6K       0.131000
@<TRIPOS>BOND
     1     1     4 1   
     2     1    16 1   
     3     1    17 1   
     4     1    30 1   
     5     2    17 2   
     6     2    18 1   
     7     2    31 1   
     8     3     4 1   
     9     3    18 1   
    10     3    19 1   
    11     3    32 1   
    12     4     5 1   
    13     4    33 1   
    14     5     6 2   
    15     5    34 1   
    16     6    19 1   
    17     6    35 1   
    18     7    21 1   
    19     7    22 1   
    20     7    27 1   
    21     7    36 1   
    22     8     9 ar  
    23     8    24 ar  
    24     8    52 1   
    25     9    10 ar  
    26     9    37 1   
    27    10    11 ar  
    28    10    14 ar  
    29    11    12 ar  
    30    11    38 1   
    31    12    13 ar  
    32    12    39 1   
    33    13    25 ar  
    34    13    40 1   
    35    14    25 ar  
    36    14    26 ar  
    37    15    20 1   
    38    15    27 1   
    39    15    29 1   
    40    15    41 1   
    41    16    42 1   
    42    16    43 1   
    43    18    44 1   
    44    19    20 1   
    45    20    21 1   
    46    20    45 1   
    47    22    23 1   
    48    22    46 1   
    49    22    47 1   
    50    23    24 1   
    51    24    26 ar  
    52    26    48 1   
    53    27    28 1   
    54    27    49 1   
    55    28    50 1   
    56    29    51 1   
@<TRIPOS>SUBSTRUCTURE
     1 U6K         1 TEMP              0 ****  ****    0 ROOT
