@<TRIPOS>MOLECULE
U6M
   35    36     1     0     0
SMALL
No Charge or Current Charge


@<TRIPOS>ATOM
      1 O2           1.0360     1.5170     0.9930 o          1 U6M      -0.468000
      2 C2           2.0390     1.2320     0.3600 c          1 U6M       0.604000
      3 N3           3.0840     2.1000     0.3470 ns         1 U6M      -0.469500
      4 C4           4.2830     1.9520    -0.2520 c          1 U6M       0.601200
      5 O4           5.1490     2.8050    -0.1950 o          1 U6M      -0.583000
      6 C5           4.4250     0.6900    -0.9540 cc         1 U6M      -0.435200
      7 C6           3.4270    -0.2550    -1.0070 cd         1 U6M       0.147400
      8 C7           3.6590    -1.5420    -1.7670 c3         1 U6M      -0.071900
      9 N1           2.2160     0.0220    -0.3540 n          1 U6M      -0.306000
     10 C1           1.0720    -0.9370    -0.4590 c5         1 U6M       0.345700
     11 O7          -0.1990    -0.3040    -0.6970 os         1 U6M      -0.407000
     12 C8           0.9150    -1.6980     0.8990 c5         1 U6M       0.066300
     13 O6           1.8980    -2.7320     1.1390 oh         1 U6M      -0.737000
     14 C3          -0.4940    -2.3030     0.6440 c5         1 U6M       0.100300
     15 O3          -0.3720    -3.4480    -0.2110 oh         1 U6M      -0.720000
     16 C9          -1.2370    -1.0940    -0.0400 c5         1 U6M       0.152300
     17 C10         -2.0030    -0.2030     0.9870 c3         1 U6M       0.247600
     18 O5          -2.8100     0.7980     0.3370 os         1 U6M      -0.561400
     19 P           -4.2510     0.4470    -0.2930 p5         1 U6M       1.269900
     20 O3P         -4.1160    -0.5020    -1.4290 o          1 U6M      -0.923833
     21 O1P         -5.1230    -0.1400     0.7600 o          1 U6M      -0.923833
     22 O2P         -4.8690     1.7090    -0.7850 o          1 U6M      -0.923833
     23 H1           2.9490     2.9590     0.8550 hn         1 U6M       0.339500
     24 H2           5.3810     0.5420    -1.4420 ha         1 U6M       0.197000
     25 H5           4.6980    -1.6280    -2.1070 hc         1 U6M       0.057033
     26 H6           3.4550    -2.4190    -1.1430 hc         1 U6M       0.057033
     27 H7           3.0220    -1.5960    -2.6580 hc         1 U6M       0.057033
     28 H8           1.2690    -1.6400    -1.2750 h2         1 U6M       0.046700
     29 H9           0.8830    -0.9840     1.7360 h1         1 U6M       0.093700
     30 H10          2.0250    -2.8050     2.1160 ho         1 U6M       0.500000
     31 H11         -0.9790    -2.5890     1.5890 h1         1 U6M       0.062700
     32 H12          0.5340    -3.7910    -0.0110 ho         1 U6M       0.486000
     33 H13         -1.9360    -1.4700    -0.7940 h1         1 U6M       0.088700
     34 H14         -2.6340    -0.8520     1.6090 h1         1 U6M       0.006200
     35 H15         -1.2800     0.2760     1.6590 h1         1 U6M       0.006200
@<TRIPOS>BOND
     1     1     2 2   
     2     2     3 1   
     3     2     9 1   
     4     3     4 1   
     5     3    23 1   
     6     4     5 2   
     7     4     6 1   
     8     6     7 2   
     9     6    24 1   
    10     7     8 1   
    11     7     9 1   
    12     8    25 1   
    13     8    26 1   
    14     8    27 1   
    15     9    10 1   
    16    10    11 1   
    17    10    12 1   
    18    10    28 1   
    19    11    16 1   
    20    12    13 1   
    21    12    14 1   
    22    12    29 1   
    23    13    30 1   
    24    14    15 1   
    25    14    16 1   
    26    14    31 1   
    27    15    32 1   
    28    16    17 1   
    29    16    33 1   
    30    17    18 1   
    31    17    34 1   
    32    17    35 1   
    33    18    19 1   
    34    19    20 1   
    35    19    21 1   
    36    19    22 1   
@<TRIPOS>SUBSTRUCTURE
     1 U6M         1 TEMP              0 ****  ****    0 ROOT
