@<TRIPOS>MOLECULE
U6M
   35    36     1     0     0
SMALL
bcc


@<TRIPOS>ATOM
      1 O2           0.7790     1.0600     1.1880 o          1 U6M      -0.543500
      2 C2           1.8020     1.0300     0.5420 c          1 U6M       0.813500
      3 N3           2.6920     2.0690     0.5780 ns         1 U6M      -0.603500
      4 C4           3.9060     2.1660    -0.0740 c          1 U6M       0.743700
      5 O4           4.6080     3.1530     0.0600 o          1 U6M      -0.658500
      6 C5           4.2090     1.0150    -0.8770 cc         1 U6M      -0.385200
      7 C6           3.3590    -0.0300    -0.9650 cd         1 U6M       0.147400
      8 C7           3.7210    -1.2060    -1.8130 c3         1 U6M      -0.071900
      9 N1           2.1600    -0.0370    -0.2720 n          1 U6M      -0.373000
     10 C1           1.2270    -1.1520    -0.4000 c5         1 U6M       0.322500
     11 O7           0.0100    -0.7200    -0.9250 os         1 U6M      -0.360600
     12 C8           0.9060    -1.9190     0.8810 c5         1 U6M       0.043100
     13 O6           1.9510    -2.8120     1.1550 oh         1 U6M      -0.614800
     14 C3          -0.4120    -2.5840     0.4700 c5         1 U6M       0.077100
     15 O3          -0.1750    -3.7080    -0.3410 oh         1 U6M      -0.597800
     16 C9          -1.0670    -1.4940    -0.3720 c5         1 U6M       0.129100
     17 C10         -2.0240    -0.6240     0.4200 c3         1 U6M       0.224400
     18 O5          -2.5430     0.3660    -0.4100 os         1 U6M      -0.538200
     19 P           -3.9990     1.1080     0.0870 p5         1 U6M       1.269900
     20 O3P         -5.0460     0.0010     0.0090 o          1 U6M      -0.923833
     21 O1P         -3.7270     1.6030     1.5030 o          1 U6M      -0.923833
     22 O2P         -4.1340     2.1960    -0.9700 o          1 U6M      -0.923833
     23 H1           2.4220     2.8430     1.1730 hn         1 U6M       0.339500
     24 H2           5.1410     0.9980    -1.4220 ha         1 U6M       0.147000
     25 H5           4.6930    -1.0330    -2.2680 hc         1 U6M       0.057033
     26 H6           3.7820    -2.1230    -1.2270 hc         1 U6M       0.057033
     27 H7           3.0000    -1.3650    -2.6160 hc         1 U6M       0.057033
     28 H8           1.7010    -1.8580    -1.0820 h2         1 U6M       0.046700
     29 H9           0.7230    -1.2420     1.7170 h1         1 U6M       0.093700
     30 H10          1.9100    -3.0590     2.0840 ho         1 U6M       0.401000
     31 H11         -1.0240    -2.8450     1.3440 h1         1 U6M       0.062700
     32 H12          0.5060    -4.2410     0.0860 ho         1 U6M       0.387000
     33 H13         -1.6170    -1.9470    -1.2040 h1         1 U6M       0.088700
     34 H14         -2.8100    -1.2920     0.8030 h1         1 U6M       0.006200
     35 H15         -1.5130    -0.2010     1.2930 h1         1 U6M       0.006200
@<TRIPOS>BOND
     1     1     2 2   
     2     2     3 1   
     3     2     9 1   
     4     3     4 1   
     5     3    23 1   
     6     4     5 2   
     7     4     6 1   
     8     6     7 2   
     9     6    24 1   
    10     7     8 1   
    11     7     9 1   
    12     8    25 1   
    13     8    26 1   
    14     8    27 1   
    15     9    10 1   
    16    10    11 1   
    17    10    12 1   
    18    10    28 1   
    19    11    16 1   
    20    12    13 1   
    21    12    14 1   
    22    12    29 1   
    23    13    30 1   
    24    14    15 1   
    25    14    16 1   
    26    14    31 1   
    27    15    32 1   
    28    16    17 1   
    29    16    33 1   
    30    17    18 1   
    31    17    34 1   
    32    17    35 1   
    33    18    19 1   
    34    19    20 1   
    35    19    21 1   
    36    19    22 1   
@<TRIPOS>SUBSTRUCTURE
     1 U6M         1 TEMP              0 ****  ****    0 ROOT
