@<TRIPOS>MOLECULE
U6N
   61    64     1     0     0
SMALL
bcc


@<TRIPOS>ATOM
      1 C1          27.0350     7.6490    -1.9400 c3         1 U6N      -0.086100
      2 C2          27.6660     6.9600    -0.7290 c3         1 U6N      -0.014200
      3 C3          26.7290     6.8460     0.4230 cc         1 U6N      -0.085300
      4 C4          25.9120     5.7990     0.7560 cd         1 U6N      -0.044400
      5 C5          25.1610     6.2140     1.9010 ca         1 U6N      -0.388400
      6 C6          24.1890     5.6540     2.7610 ca         1 U6N       0.786200
      7 N1          23.7450     4.4040     2.5920 nu         1 U6N      -0.794900
      8 C7          22.6510     3.8080     3.3140 c3         1 U6N       0.079500
      9 C8          22.7700     2.2810     3.2100 c3         1 U6N      -0.040100
     10 C9          24.1220     1.7770     3.6300 ca         1 U6N      -0.053300
     11 C10         24.4700     1.7130     4.9780 ca         1 U6N      -0.129000
     12 C11         25.7300     1.2830     5.3690 ca         1 U6N      -0.134000
     13 C12         26.6680     0.9080     4.4130 ca         1 U6N      -0.152000
     14 C13         26.3330     0.9660     3.0680 ca         1 U6N      -0.134000
     15 C14         25.0700     1.3990     2.6830 ca         1 U6N      -0.129000
     16 C15         21.2510     4.2850     2.8280 c          1 U6N       0.928600
     17 O1          20.2910     3.7740     3.4360 o          1 U6N      -0.819800
     18 O2          21.2150     5.1100     1.9010 o          1 U6N      -0.819800
     19 N2          23.7460     6.3810     3.7930 nb         1 U6N      -0.800000
     20 C16         24.2360     7.6050     3.9690 ca         1 U6N       0.711900
     21 N3          25.1350     8.2410     3.2430 nb         1 U6N      -0.810000
     22 C17         25.5700     7.5080     2.2150 ca         1 U6N       0.492800
     23 N4          26.5030     7.8890     1.3010 na         1 U6N      -0.161100
     24 C18         27.2670     9.1160     1.3830 c3         1 U6N       0.142400
     25 C19         28.5480     8.9250     2.0590 c1         1 U6N      -0.152100
     26 C20         29.5990     8.7550     2.6180 c1         1 U6N      -0.132100
     27 C21         30.8690     8.5410     3.2920 c3         1 U6N      -0.002000
     28 C22         25.8010     4.5140     0.0420 ca         1 U6N      -0.005800
     29 C23         26.8180     3.5460     0.1050 ca         1 U6N      -0.051300
     30 C24         28.0640     3.7500     0.9110 c3         1 U6N      -0.048800
     31 C25         26.6180     2.3680    -0.6150 ca         1 U6N       0.016400
     32 CL1         27.8550     1.1460    -0.6040 cl         1 U6N      -0.145400
     33 C26         25.4670     2.1100    -1.3410 ca         1 U6N      -0.131000
     34 C27         24.4660     3.0670    -1.3690 ca         1 U6N      -0.127000
     35 C28         24.6390     4.2600    -0.6890 ca         1 U6N      -0.109000
     36 H1          27.7420     7.6910    -2.7680 hc         1 U6N       0.032367
     37 H2          26.1520     7.1050    -2.2750 hc         1 U6N       0.032367
     38 H3          26.7300     8.6710    -1.7130 hc         1 U6N       0.032367
     39 H4          27.9770     5.9540    -1.0140 hc         1 U6N       0.048700
     40 H5          28.5780     7.4830    -0.4310 hc         1 U6N       0.048700
     41 H6          24.0200     3.9450     1.7370 hn         1 U6N       0.428800
     42 H7          22.7500     4.0870     4.3670 h1         1 U6N       0.071700
     43 H8          21.9890     1.8410     3.8280 hc         1 U6N       0.060700
     44 H9          22.5720     1.9700     2.1790 hc         1 U6N       0.060700
     45 H10         23.7450     2.0020     5.7310 ha         1 U6N       0.131000
     46 H11         25.9810     1.2370     6.4210 ha         1 U6N       0.118500
     47 H12         27.6500     0.5690     4.7170 ha         1 U6N       0.113000
     48 H13         27.0530     0.6730     2.3140 ha         1 U6N       0.118500
     49 H14         24.8180     1.4420     1.6290 ha         1 U6N       0.131000
     50 H16         23.8420     8.1460     4.8240 h5         1 U6N       0.029100
     51 H17         27.4220     9.5160     0.3800 h1         1 U6N       0.077200
     52 H18         26.6630     9.8500     1.9180 h1         1 U6N       0.077200
     53 H19         31.0900     7.4770     3.3750 hc         1 U6N       0.047033
     54 H20         31.6880     9.0090     2.7450 hc         1 U6N       0.047033
     55 H21         30.8570     8.9590     4.2990 hc         1 U6N       0.047033
     56 H22         28.9390     3.8580     0.2680 hc         1 U6N       0.049700
     57 H23         27.9920     4.6420     1.5290 hc         1 U6N       0.049700
     58 H24         28.2510     2.9010     1.5690 hc         1 U6N       0.049700
     59 H25         25.3560     1.1760    -1.8750 ha         1 U6N       0.138000
     60 H26         23.5590     2.8820    -1.9290 ha         1 U6N       0.139000
     61 H27         23.8630     5.0150    -0.7230 ha         1 U6N       0.164000
@<TRIPOS>BOND
     1     1     2 1   
     2     1    36 1   
     3     1    37 1   
     4     1    38 1   
     5     2     3 1   
     6     2    39 1   
     7     2    40 1   
     8     3     4 2   
     9     3    23 1   
    10     4     5 1   
    11     4    28 1   
    12     5     6 ar  
    13     5    22 ar  
    14     6     7 1   
    15     6    19 ar  
    16     7     8 1   
    17     7    41 1   
    18     8     9 1   
    19     8    16 1   
    20     8    42 1   
    21     9    10 1   
    22     9    43 1   
    23     9    44 1   
    24    10    11 ar  
    25    10    15 ar  
    26    11    12 ar  
    27    11    45 1   
    28    12    13 ar  
    29    12    46 1   
    30    13    14 ar  
    31    13    47 1   
    32    14    15 ar  
    33    14    48 1   
    34    15    49 1   
    35    16    17 1   
    36    16    18 1   
    37    19    20 ar  
    38    20    21 ar  
    39    20    50 1   
    40    21    22 ar  
    41    22    23 1   
    42    23    24 1   
    43    24    25 1   
    44    24    51 1   
    45    24    52 1   
    46    25    26 3   
    47    26    27 1   
    48    27    53 1   
    49    27    54 1   
    50    27    55 1   
    51    28    29 ar  
    52    28    35 ar  
    53    29    30 1   
    54    29    31 ar  
    55    30    56 1   
    56    30    57 1   
    57    30    58 1   
    58    31    32 1   
    59    31    33 ar  
    60    33    34 ar  
    61    33    59 1   
    62    34    35 ar  
    63    34    60 1   
    64    35    61 1   
@<TRIPOS>SUBSTRUCTURE
     1 U6N         1 TEMP              0 ****  ****    0 ROOT
