@<TRIPOS>MOLECULE
U6N
   61    64     1     0     0
SMALL
No Charge or Current Charge


@<TRIPOS>ATOM
      1 C1          27.4390     7.4460    -1.9270 c3         1 U6N      -0.086100
      2 C2          27.8770     6.7560    -0.6210 c3         1 U6N      -0.014200
      3 C3          26.8180     6.8220     0.4560 cc         1 U6N      -0.085300
      4 C4          25.8620     5.8870     0.8350 cd         1 U6N      -0.044400
      5 C5          25.0310     6.4390     1.8910 ca         1 U6N      -0.257800
      6 C6          23.9890     5.9200     2.6740 ca         1 U6N       0.457900
      7 N1          23.5640     4.6070     2.5460 nu         1 U6N      -0.850100
      8 C7          22.6210     3.8510     3.4310 c3         1 U6N       0.079500
      9 C8          22.7230     2.3350     3.1130 c3         1 U6N      -0.040100
     10 C9          24.1320     1.7290     3.1580 ca         1 U6N      -0.053300
     11 C10         25.1370     2.2230     4.0200 ca         1 U6N      -0.111000
     12 C11         26.4140     1.6350     4.0350 ca         1 U6N      -0.116000
     13 C12         26.6970     0.5420     3.2020 ca         1 U6N      -0.134000
     14 C13         25.7010     0.0360     2.3520 ca         1 U6N      -0.116000
     15 C14         24.4270     0.6270     2.3300 ca         1 U6N      -0.111000
     16 C15         21.1200     4.3430     3.3650 c          1 U6N       0.718000
     17 O1          20.6030     4.7630     4.3930 o          1 U6N      -0.714500
     18 O2          20.5210     4.2890     2.2960 o          1 U6N      -0.714500
     19 N2          23.4110     6.6830     3.6210 nb         1 U6N      -0.274000
     20 C16         23.8930     7.9390     3.7600 ca         1 U6N       0.185900
     21 N3          24.9080     8.4980     3.0610 nb         1 U6N      -0.284000
     22 C17         25.4760     7.7190     2.1190 ca         1 U6N       0.164500
     23 N4          26.5440     7.9500     1.2590 na         1 U6N      -0.190400
     24 C18         27.2960     9.2190     1.3070 c3         1 U6N       0.171700
     25 C19         28.4900     9.1460     2.1620 c1         1 U6N      -0.152100
     26 C20         29.4710     9.0510     2.8620 c1         1 U6N      -0.132100
     27 C21         30.6570     8.8980     3.7110 c3         1 U6N      -0.002000
     28 C22         25.7830     4.4880     0.3700 ca         1 U6N      -0.005800
     29 C23         26.8730     3.5790     0.4710 ca         1 U6N      -0.051300
     30 C24         28.1510     3.9300     1.2410 c3         1 U6N      -0.048800
     31 C25         26.7410     2.2850    -0.0880 ca         1 U6N       0.108000
     32 Cl1         28.0770     1.1310    -0.0500 cl         1 U6N      -0.237000
     33 C26         25.5400     1.8860    -0.6950 ca         1 U6N      -0.113000
     34 C27         24.4540     2.7690    -0.7550 ca         1 U6N      -0.109000
     35 C28         24.5810     4.0640    -0.2320 ca         1 U6N      -0.091000
     36 H1          28.2300     7.3720    -2.6820 hc         1 U6N       0.032367
     37 H2          26.5360     6.9700    -2.3270 hc         1 U6N       0.032367
     38 H3          27.2230     8.5070    -1.7600 hc         1 U6N       0.032367
     39 H4          28.1160     5.7160    -0.8610 hc         1 U6N       0.048700
     40 H5          28.8070     7.2120    -0.2640 hc         1 U6N       0.048700
     41 H6          24.1090     4.0630     1.8810 hn         1 U6N       0.484000
     42 H7          22.9320     3.9880     4.4760 h1         1 U6N       0.071700
     43 H8          22.0790     1.7930     3.8170 hc         1 U6N       0.060700
     44 H9          22.2870     2.1660     2.1210 hc         1 U6N       0.060700
     45 H10         24.9410     3.0620     4.6810 ha         1 U6N       0.113000
     46 H11         27.1840     2.0270     4.6960 ha         1 U6N       0.100500
     47 H12         27.6850     0.0880     3.2150 ha         1 U6N       0.095000
     48 H13         25.9180    -0.8110     1.7060 ha         1 U6N       0.100500
     49 H14         23.6660     0.2270     1.6640 ha         1 U6N       0.113000
     50 H16         23.4270     8.5590     4.5230 h5         1 U6N       0.029100
     51 H17         27.6040     9.4930     0.2910 h1         1 U6N       0.077200
     52 H18         26.6410    10.0190     1.6750 h1         1 U6N       0.077200
     53 H19         30.9050     7.8370     3.8310 hc         1 U6N       0.047033
     54 H20         31.5160     9.4090     3.2600 hc         1 U6N       0.047033
     55 H21         30.4740     9.3300     4.7020 hc         1 U6N       0.047033
     56 H22         29.0060     4.0390     0.5640 hc         1 U6N       0.049700
     57 H23         28.0610     4.8540     1.8220 hc         1 U6N       0.049700
     58 H24         28.3990     3.1430     1.9620 hc         1 U6N       0.049700
     59 H25         25.4510     0.8870    -1.1140 ha         1 U6N       0.120000
     60 H26         23.5230     2.4580    -1.2240 ha         1 U6N       0.121000
     61 H27         23.7470     4.7580    -0.3200 ha         1 U6N       0.146000
@<TRIPOS>BOND
     1     1     2 1   
     2     1    36 1   
     3     1    37 1   
     4     1    38 1   
     5     2     3 1   
     6     2    39 1   
     7     2    40 1   
     8     3     4 2   
     9     3    23 1   
    10     4     5 1   
    11     4    28 1   
    12     5     6 ar  
    13     5    22 ar  
    14     6     7 1   
    15     6    19 ar  
    16     7     8 1   
    17     7    41 1   
    18     8     9 1   
    19     8    16 1   
    20     8    42 1   
    21     9    10 1   
    22     9    43 1   
    23     9    44 1   
    24    10    11 ar  
    25    10    15 ar  
    26    11    12 ar  
    27    11    45 1   
    28    12    13 ar  
    29    12    46 1   
    30    13    14 ar  
    31    13    47 1   
    32    14    15 ar  
    33    14    48 1   
    34    15    49 1   
    35    16    17 1   
    36    16    18 1   
    37    19    20 ar  
    38    20    21 ar  
    39    20    50 1   
    40    21    22 ar  
    41    22    23 1   
    42    23    24 1   
    43    24    25 1   
    44    24    51 1   
    45    24    52 1   
    46    25    26 3   
    47    26    27 1   
    48    27    53 1   
    49    27    54 1   
    50    27    55 1   
    51    28    29 ar  
    52    28    35 ar  
    53    29    30 1   
    54    29    31 ar  
    55    30    56 1   
    56    30    57 1   
    57    30    58 1   
    58    31    32 1   
    59    31    33 ar  
    60    33    34 ar  
    61    33    59 1   
    62    34    35 ar  
    63    34    60 1   
    64    35    61 1   
@<TRIPOS>SUBSTRUCTURE
     1 U6N         1 TEMP              0 ****  ****    0 ROOT
