@<TRIPOS>MOLECULE
U6O
   44    47     1     0     0
SMALL
abcg2


@<TRIPOS>ATOM
      1 C01          0.6810     4.3640    20.0020 cc         1 U6O      -0.286300
      2 C02          1.1750     4.8120    21.1890 cd         1 U6O      -0.021300
      3 C04         -0.6480     3.7320    19.7180 c3         1 U6O      -0.003800
      4 C06          2.9720     5.3060    19.7370 cc         1 U6O       0.048600
      5 C07          2.5050     5.3620    21.0500 cd         1 U6O      -0.341500
      6 C11          4.8440     6.7850    23.2720 cc         1 U6O       0.617300
      7 C15          4.6630     5.7060    18.0210 c          1 U6O       0.635300
      8 C17          6.0130     6.2400    17.8370 ce         1 U6O      -0.293400
      9 C18          6.8470     6.8400    18.9530 c5         1 U6O      -0.029200
     10 C19          8.0320     7.4790    18.2020 c5         1 U6O      -0.082400
     11 C20          8.0820     6.7550    16.8420 c5         1 U6O      -0.065200
     12 C21          6.6930     6.1940    16.6760 cf         1 U6O      -0.002400
     13 C22          6.2740     5.6430    15.3360 c          1 U6O       0.713200
     14 C25          7.3810     6.9720    22.9200 cx         1 U6O      -0.104400
     15 C26          6.8120     8.3330    22.6930 cx         1 U6O      -0.104400
     16 C03          0.4140     4.7310    22.4790 c3         1 U6O      -0.028800
     17 S05          1.8040     4.5940    18.6870 ss         1 U6O       0.314000
     18 N08          4.1970     5.7530    19.3170 ns         1 U6O      -0.380100
     19 C09          3.3140     5.9150    22.0970 cd         1 U6O       0.636500
     20 N10          4.5300     6.4030    21.9920 nc         1 U6O      -0.806000
     21 N12          3.8920     6.5590    24.1390 nd         1 U6O      -0.414300
     22 O13          2.8600     5.9760    23.3600 os         1 U6O      -0.120700
     23 C14          6.1220     7.3860    23.6520 cx         1 U6O      -0.189000
     24 O16          3.9590     5.2370    17.1250 o          1 U6O      -0.550100
     25 O23          6.5490     4.4380    15.1210 o          1 U6O      -0.701500
     26 O24          5.7600     6.4650    14.5410 o          1 U6O      -0.701500
     27 H32         -0.7430     3.4780    18.6620 hc         1 U6O       0.036033
     28 H31         -0.7810     2.8130    20.2930 hc         1 U6O       0.036033
     29 H30         -1.4700     4.4040    19.9730 hc         1 U6O       0.036033
     30 H35          6.3000     7.5770    19.5440 hc         1 U6O       0.029700
     31 H36          7.1810     6.0610    19.6460 hc         1 U6O       0.029700
     32 H38          7.8280     8.5390    18.0390 hc         1 U6O       0.030200
     33 H37          8.9680     7.4030    18.7550 hc         1 U6O       0.030200
     34 H40          8.3600     7.4110    16.0150 hc         1 U6O       0.061700
     35 H39          8.8020     5.9280    16.8420 hc         1 U6O       0.061700
     36 H42          8.2790     6.8770    23.5160 hc         1 U6O       0.080450
     37 H43          7.2690     6.2410    22.1310 hc         1 U6O       0.080450
     38 H45          6.3160     8.5220    21.7520 hc         1 U6O       0.080450
     39 H44          7.3130     9.1850    23.1320 hc         1 U6O       0.080450
     40 H27          0.9540     4.1380    23.2210 hc         1 U6O       0.042700
     41 H28          0.2580     5.7200    22.9130 hc         1 U6O       0.042700
     42 H29         -0.5590     4.2710    22.3200 hc         1 U6O       0.042700
     43 H33          4.7800     6.1380    20.0590 hn         1 U6O       0.365500
     44 H34          6.2090     7.6010    24.7080 hc         1 U6O       0.093700
@<TRIPOS>BOND
     1     1     2 2   
     2     1     3 1   
     3     1    17 1   
     4     2     5 1   
     5     2    16 1   
     6     3    27 1   
     7     3    28 1   
     8     3    29 1   
     9     4     5 2   
    10     4    17 1   
    11     4    18 1   
    12     5    19 1   
    13     6    20 1   
    14     6    21 2   
    15     6    23 1   
    16     7     8 1   
    17     7    18 1   
    18     7    24 2   
    19     8     9 1   
    20     8    12 2   
    21     9    10 1   
    22     9    30 1   
    23     9    31 1   
    24    10    11 1   
    25    10    32 1   
    26    10    33 1   
    27    11    12 1   
    28    11    34 1   
    29    11    35 1   
    30    12    13 1   
    31    13    25 1   
    32    13    26 1   
    33    14    15 1   
    34    14    23 1   
    35    14    36 1   
    36    14    37 1   
    37    15    23 1   
    38    15    38 1   
    39    15    39 1   
    40    16    40 1   
    41    16    41 1   
    42    16    42 1   
    43    18    43 1   
    44    19    20 2   
    45    19    22 1   
    46    21    22 1   
    47    23    44 1   
@<TRIPOS>SUBSTRUCTURE
     1 U6O         1 TEMP              0 ****  ****    0 ROOT
