@<TRIPOS>MOLECULE
U6O
   44    47     1     0     0
SMALL
No Charge or Current Charge


@<TRIPOS>ATOM
      1 C01          0.5470     4.3420    20.0880 cc         1 U6O      -0.286300
      2 C02          1.1440     4.8000    21.2440 cd         1 U6O      -0.021300
      3 C04         -0.8330     3.7580    19.9180 c3         1 U6O      -0.003800
      4 C06          2.8810     5.2020    19.6810 cc         1 U6O       0.048600
      5 C07          2.4820     5.2910    21.0070 cd         1 U6O      -0.341500
      6 C11          4.9380     6.6290    23.1530 cc         1 U6O       0.617300
      7 C15          4.6450     5.5750    17.9380 c          1 U6O       0.635300
      8 C17          6.0100     6.2030    17.7670 ce         1 U6O      -0.293400
      9 C18          6.4830     7.1030    18.9140 c5         1 U6O      -0.029200
     10 C19          7.4630     8.0480    18.1740 c5         1 U6O      -0.082400
     11 C20          8.0940     7.0950    17.1330 c5         1 U6O      -0.065200
     12 C21          6.9280     6.1630    16.7420 cf         1 U6O      -0.002400
     13 C22          6.9410     5.4150    15.4170 c          1 U6O       0.713200
     14 C25          7.5100     6.6920    22.7130 cx         1 U6O      -0.104400
     15 C26          6.9950     8.0970    22.4860 cx         1 U6O      -0.104400
     16 C03          0.4460     4.7750    22.5890 c3         1 U6O      -0.028800
     17 S05          1.6030     4.4960    18.6910 ss         1 U6O       0.314000
     18 N08          4.1200     5.6340    19.2170 ns         1 U6O      -0.380100
     19 C09          3.3500     5.8280    22.0480 cd         1 U6O       0.636500
     20 N10          4.5830     6.2700    21.8820 nc         1 U6O      -0.806000
     21 N12          4.0160     6.4450    24.0800 nd         1 U6O      -0.414300
     22 O13          2.9450     5.9080    23.3470 os         1 U6O      -0.120700
     23 C14          6.2810     7.1770    23.4550 cx         1 U6O      -0.189000
     24 O16          4.0350     5.0550    17.0190 o          1 U6O      -0.550100
     25 O23          6.0680     4.6020    15.1550 o          1 U6O      -0.701500
     26 O24          7.8800     5.6210    14.6570 o          1 U6O      -0.701500
     27 H32         -1.0250     3.4830    18.8740 hc         1 U6O       0.036033
     28 H31         -0.9540     2.8540    20.5280 hc         1 U6O       0.036033
     29 H30         -1.6040     4.4780    20.2190 hc         1 U6O       0.036033
     30 H35          5.6790     7.6800    19.3860 hc         1 U6O       0.029700
     31 H36          6.9910     6.5170    19.6870 hc         1 U6O       0.029700
     32 H38          6.9200     8.8620    17.6790 hc         1 U6O       0.030200
     33 H37          8.2030     8.5020    18.8430 hc         1 U6O       0.030200
     34 H40          8.4970     7.6490    16.2780 hc         1 U6O       0.061700
     35 H39          8.9200     6.5180    17.5650 hc         1 U6O       0.061700
     36 H42          8.4310     6.5770    23.2800 hc         1 U6O       0.080450
     37 H43          7.3740     5.9580    21.9230 hc         1 U6O       0.080450
     38 H45          6.5090     8.3210    21.5410 hc         1 U6O       0.080450
     39 H44          7.5720     8.9200    22.9000 hc         1 U6O       0.080450
     40 H27          0.9960     4.1560    23.3080 hc         1 U6O       0.042700
     41 H28          0.3500     5.7850    23.0040 hc         1 U6O       0.042700
     42 H29         -0.5670     4.3620    22.5260 hc         1 U6O       0.042700
     43 H33          4.7380     6.0480    19.9080 hn         1 U6O       0.365500
     44 H34          6.4070     7.3950    24.5130 hc         1 U6O       0.093700
@<TRIPOS>BOND
     1     1     2 2   
     2     1     3 1   
     3     1    17 1   
     4     2     5 1   
     5     2    16 1   
     6     3    27 1   
     7     3    28 1   
     8     3    29 1   
     9     4     5 2   
    10     4    17 1   
    11     4    18 1   
    12     5    19 1   
    13     6    20 1   
    14     6    21 2   
    15     6    23 1   
    16     7     8 1   
    17     7    18 1   
    18     7    24 2   
    19     8     9 1   
    20     8    12 2   
    21     9    10 1   
    22     9    30 1   
    23     9    31 1   
    24    10    11 1   
    25    10    32 1   
    26    10    33 1   
    27    11    12 1   
    28    11    34 1   
    29    11    35 1   
    30    12    13 1   
    31    13    25 1   
    32    13    26 1   
    33    14    15 1   
    34    14    23 1   
    35    14    36 1   
    36    14    37 1   
    37    15    23 1   
    38    15    38 1   
    39    15    39 1   
    40    16    40 1   
    41    16    41 1   
    42    16    42 1   
    43    18    43 1   
    44    19    20 2   
    45    19    22 1   
    46    21    22 1   
    47    23    44 1   
@<TRIPOS>SUBSTRUCTURE
     1 U6O         1 TEMP              0 ****  ****    0 ROOT
