@<TRIPOS>MOLECULE
U6Q
   52    55     1     0     0
SMALL
bcc


@<TRIPOS>ATOM
      1 C1           8.3800     3.7680    -8.0970 c3         1 U6Q      -0.086100
      2 C2           7.2820     4.1580    -7.1080 c3         1 U6Q      -0.005200
      3 C3           6.1160     3.2270    -7.1280 cc         1 U6Q      -0.089600
      4 C4           5.7050     2.3690    -6.1580 cd         1 U6Q       0.024600
      5 C5           4.5370     1.6230    -6.5410 ca         1 U6Q      -0.377400
      6 C6           4.1020     1.9400    -7.8230 ca         1 U6Q       0.519600
      7 S1           5.1070     3.1470    -8.5450 ss         1 U6Q      -0.181900
      8 N1           3.0520     1.4070    -8.4480 nb         1 U6Q      -0.765000
      9 C7           2.4180     0.5060    -7.7220 ca         1 U6Q       0.703900
     10 N2           2.7070     0.1040    -6.4930 nb         1 U6Q      -0.785000
     11 C8           3.7550     0.6440    -5.8640 ca         1 U6Q       0.779200
     12 N3           4.0010     0.2760    -4.6040 nu         1 U6Q      -0.786900
     13 C9           3.3970    -0.8790    -3.9810 c3         1 U6Q       0.069500
     14 C10          3.5130    -0.7520    -2.4590 c3         1 U6Q      -0.039100
     15 C11          2.8130     0.4630    -1.9190 ca         1 U6Q      -0.053300
     16 C12          1.4200     0.5050    -1.8610 ca         1 U6Q      -0.128000
     17 C13          0.7600     1.6300    -1.3900 ca         1 U6Q      -0.135000
     18 C14          1.4850     2.7380    -0.9660 ca         1 U6Q      -0.151000
     19 C15          2.8710     2.7070    -1.0150 ca         1 U6Q      -0.135000
     20 C16          3.5270     1.5770    -1.4900 ca         1 U6Q      -0.128000
     21 C17          4.0060    -2.2240    -4.4800 c          1 U6Q       0.928600
     22 O1           4.9290    -2.1640    -5.3090 o          1 U6Q      -0.818300
     23 O2           3.4850    -3.2400    -3.9840 o          1 U6Q      -0.818300
     24 C18          6.4240     2.2110    -4.8720 ca         1 U6Q      -0.034800
     25 C19          6.1780     3.0730    -3.7940 ca         1 U6Q      -0.047300
     26 C20          5.1750     4.1820    -3.8730 c3         1 U6Q      -0.050800
     27 C21          6.9060     2.8470    -2.6260 ca         1 U6Q       0.012400
     28 CL1          6.6460     3.8800    -1.2540 cl         1 U6Q      -0.138400
     29 C22          7.8250     1.8190    -2.4990 ca         1 U6Q      -0.124000
     30 C23          8.0460     0.9770    -3.5760 ca         1 U6Q      -0.125000
     31 C24          7.3480     1.1740    -4.7560 ca         1 U6Q      -0.093000
     32 H1           9.2160     4.4640    -8.0310 hc         1 U6Q       0.032700
     33 H2           8.7560     2.7670    -7.8860 hc         1 U6Q       0.032700
     34 H3           8.0180     3.7830    -9.1250 hc         1 U6Q       0.032700
     35 H4           7.6910     4.1760    -6.0960 hc         1 U6Q       0.045200
     36 H5           6.9420     5.1750    -7.3180 hc         1 U6Q       0.045200
     37 H6           1.5560     0.0360    -8.1830 h5         1 U6Q       0.032100
     38 H7           4.8680     0.5890    -4.1980 hn         1 U6Q       0.428800
     39 H8           2.3370    -0.8850    -4.2420 h1         1 U6Q       0.076700
     40 H9           3.0840    -1.6550    -2.0230 hc         1 U6Q       0.062200
     41 H10          4.5690    -0.7320    -2.1700 hc         1 U6Q       0.062200
     42 H11          0.8470    -0.3570    -2.1860 ha         1 U6Q       0.132500
     43 H12         -0.3220     1.6420    -1.3490 ha         1 U6Q       0.118000
     44 H13          0.9710     3.6160    -0.5950 ha         1 U6Q       0.113000
     45 H14          3.4470     3.5620    -0.6820 ha         1 U6Q       0.118000
     46 H15          4.6100     1.5580    -1.5200 ha         1 U6Q       0.132500
     47 H17          4.4090     4.0680    -3.1060 hc         1 U6Q       0.052033
     48 H18          5.6470     5.1530    -3.7150 hc         1 U6Q       0.052033
     49 H19          4.6790     4.2060    -4.8400 hc         1 U6Q       0.052033
     50 H20          8.3610     1.6780    -1.5700 ha         1 U6Q       0.139000
     51 H21          8.7610     0.1700    -3.4910 ha         1 U6Q       0.140000
     52 H22          7.5190     0.5210    -5.6020 ha         1 U6Q       0.161000
@<TRIPOS>BOND
     1     1     2 1   
     2     1    32 1   
     3     1    33 1   
     4     1    34 1   
     5     2     3 1   
     6     2    35 1   
     7     2    36 1   
     8     3     4 2   
     9     3     7 1   
    10     4     5 1   
    11     4    24 1   
    12     5     6 ar  
    13     5    11 ar  
    14     6     7 1   
    15     6     8 ar  
    16     8     9 ar  
    17     9    10 ar  
    18     9    37 1   
    19    10    11 ar  
    20    11    12 1   
    21    12    13 1   
    22    12    38 1   
    23    13    14 1   
    24    13    21 1   
    25    13    39 1   
    26    14    15 1   
    27    14    40 1   
    28    14    41 1   
    29    15    16 ar  
    30    15    20 ar  
    31    16    17 ar  
    32    16    42 1   
    33    17    18 ar  
    34    17    43 1   
    35    18    19 ar  
    36    18    44 1   
    37    19    20 ar  
    38    19    45 1   
    39    20    46 1   
    40    21    22 1   
    41    21    23 1   
    42    24    25 ar  
    43    24    31 ar  
    44    25    26 1   
    45    25    27 ar  
    46    26    47 1   
    47    26    48 1   
    48    26    49 1   
    49    27    28 1   
    50    27    29 ar  
    51    29    30 ar  
    52    29    50 1   
    53    30    31 ar  
    54    30    51 1   
    55    31    52 1   
@<TRIPOS>SUBSTRUCTURE
     1 U6Q         1 TEMP              0 ****  ****    0 ROOT
