@<TRIPOS>MOLECULE
U6Q
   52    55     1     0     0
SMALL
No Charge or Current Charge


@<TRIPOS>ATOM
      1 C1           8.0140     4.2940    -7.9050 c3         1 U6Q      -0.086100
      2 C2           6.8060     4.3820    -6.9530 c3         1 U6Q      -0.005200
      3 C3           5.8250     3.2460    -7.1310 cc         1 U6Q      -0.089600
      4 C4           5.4820     2.2470    -6.2270 cd         1 U6Q       0.024600
      5 C5           4.5260     1.2790    -6.7570 ca         1 U6Q      -0.246800
      6 C6           4.2200     1.5600    -8.0720 ca         1 U6Q       0.191300
      7 S1           5.0350     3.0020    -8.7140 ss         1 U6Q      -0.181900
      8 N1           3.3550     0.8290    -8.7960 nb         1 U6Q      -0.239000
      9 C7           2.7890    -0.2090    -8.1450 ca         1 U6Q       0.177900
     10 N2           2.9930    -0.5590    -6.8570 nb         1 U6Q      -0.259000
     11 C8           3.8660     0.1900    -6.1530 ca         1 U6Q       0.450900
     12 N3           4.0310    -0.1220    -4.8120 nu         1 U6Q      -0.842100
     13 C9           3.3260    -1.1720    -4.0080 c3         1 U6Q       0.069500
     14 C10          3.6490    -0.9710    -2.5030 c3         1 U6Q      -0.039100
     15 C11          3.3760     0.4250    -1.9280 ca         1 U6Q      -0.053300
     16 C12          2.3890     1.2840    -2.4630 ca         1 U6Q      -0.110000
     17 C13          2.1680     2.5530    -1.9000 ca         1 U6Q      -0.117000
     18 C14          2.9180     2.9720    -0.7900 ca         1 U6Q      -0.133000
     19 C15          3.8900     2.1200    -0.2430 ca         1 U6Q      -0.117000
     20 C16          4.1180     0.8560    -0.8100 ca         1 U6Q      -0.110000
     21 C17          3.6360    -2.6560    -4.4540 c          1 U6Q       0.718000
     22 O1           4.7950    -3.0570    -4.4290 o          1 U6Q      -0.713000
     23 O2           2.6990    -3.3580    -4.8170 o          1 U6Q      -0.713000
     24 C18          5.9430     2.2230    -4.8230 ca         1 U6Q      -0.034800
     25 C19          5.6990     3.2930    -3.9170 ca         1 U6Q      -0.047300
     26 C20          4.7970     4.4730    -4.2920 c3         1 U6Q      -0.050800
     27 C21          6.2620     3.2370    -2.6200 ca         1 U6Q       0.104000
     28 Cl1          6.0600     4.5670    -1.4750 cl         1 U6Q      -0.230000
     29 C22          7.0130     2.1230    -2.2130 ca         1 U6Q      -0.106000
     30 C23          7.2210     1.0540    -3.0940 ca         1 U6Q      -0.107000
     31 C24          6.6990     1.1120    -4.3940 ca         1 U6Q      -0.075000
     32 H1           8.7140     5.1150    -7.7100 hc         1 U6Q       0.032700
     33 H2           8.5470     3.3470    -7.7620 hc         1 U6Q       0.032700
     34 H3           7.6960     4.3600    -8.9520 hc         1 U6Q       0.032700
     35 H4           7.1900     4.4060    -5.9280 hc         1 U6Q       0.045200
     36 H5           6.2920     5.3380    -7.1150 hc         1 U6Q       0.045200
     37 H6           2.0860    -0.8160    -8.7120 h5         1 U6Q       0.032100
     38 H7           4.6340     0.5210    -4.3040 hn         1 U6Q       0.484000
     39 H8           2.2430    -1.0470    -4.1330 h1         1 U6Q       0.076700
     40 H9           3.0770    -1.7100    -1.9290 hc         1 U6Q       0.062200
     41 H10          4.7050    -1.2250    -2.3450 hc         1 U6Q       0.062200
     42 H11          1.7890     0.9810    -3.3160 ha         1 U6Q       0.114500
     43 H12          1.4120     3.2100    -2.3240 ha         1 U6Q       0.100000
     44 H13          2.7460     3.9530    -0.3550 ha         1 U6Q       0.095000
     45 H14          4.4720     2.4430     0.6170 ha         1 U6Q       0.100000
     46 H15          4.8770     0.2070    -0.3780 ha         1 U6Q       0.114500
     47 H17          4.0780     4.6870    -3.4930 hc         1 U6Q       0.052033
     48 H18          5.3840     5.3820    -4.4620 hc         1 U6Q       0.052033
     49 H19          4.2000     4.2830    -5.1900 hc         1 U6Q       0.052033
     50 H20          7.4340     2.0900    -1.2110 ha         1 U6Q       0.121000
     51 H21          7.8050     0.1920    -2.7790 ha         1 U6Q       0.122000
     52 H22          6.8990     0.2950    -5.0860 ha         1 U6Q       0.143000
@<TRIPOS>BOND
     1     1     2 1   
     2     1    32 1   
     3     1    33 1   
     4     1    34 1   
     5     2     3 1   
     6     2    35 1   
     7     2    36 1   
     8     3     4 2   
     9     3     7 1   
    10     4     5 1   
    11     4    24 1   
    12     5     6 ar  
    13     5    11 ar  
    14     6     7 1   
    15     6     8 ar  
    16     8     9 ar  
    17     9    10 ar  
    18     9    37 1   
    19    10    11 ar  
    20    11    12 1   
    21    12    13 1   
    22    12    38 1   
    23    13    14 1   
    24    13    21 1   
    25    13    39 1   
    26    14    15 1   
    27    14    40 1   
    28    14    41 1   
    29    15    16 ar  
    30    15    20 ar  
    31    16    17 ar  
    32    16    42 1   
    33    17    18 ar  
    34    17    43 1   
    35    18    19 ar  
    36    18    44 1   
    37    19    20 ar  
    38    19    45 1   
    39    20    46 1   
    40    21    22 1   
    41    21    23 1   
    42    24    25 ar  
    43    24    31 ar  
    44    25    26 1   
    45    25    27 ar  
    46    26    47 1   
    47    26    48 1   
    48    26    49 1   
    49    27    28 1   
    50    27    29 ar  
    51    29    30 ar  
    52    29    50 1   
    53    30    31 ar  
    54    30    51 1   
    55    31    52 1   
@<TRIPOS>SUBSTRUCTURE
     1 U6Q         1 TEMP              0 ****  ****    0 ROOT
