@<TRIPOS>MOLECULE
U6R
   36    39     1     0     0
SMALL
No Charge or Current Charge


@<TRIPOS>ATOM
      1 C1          35.5480    42.9560    17.2040 ca         1 U6R       0.167100
      2 C2          36.2340    43.8150    16.3200 ca         1 U6R      -0.178500
      3 C3          36.8700    43.2900    15.1810 ca         1 U6R      -0.033000
      4 C7          37.4900    41.3670    13.7290 cc         1 U6R       0.126000
      5 C8          38.6100    40.5640    13.8450 cd         1 U6R      -0.304900
      6 C9          39.2350    39.9980    12.7710 cd         1 U6R      -0.070000
      7 C10         38.7610    40.2300    11.4630 cd         1 U6R      -0.070000
      8 C11         37.6590    41.0550    11.2780 cc         1 U6R      -0.142000
      9 C12         39.3650    40.1360    14.9560 cd         1 U6R       0.394900
     10 C13         39.1900    40.4830    16.3960 cx         1 U6R      -0.147000
     11 C14         39.3790    41.9010    16.8950 cx         1 U6R      -0.118900
     12 C15         40.3840    40.8380    17.2610 cx         1 U6R      -0.118900
     13 N           37.0270    41.6400    12.4090 na         1 U6R       0.176000
     14 C4          36.8360    41.9070    14.9200 ca         1 U6R      -0.121000
     15 C5          36.1330    41.0560    15.7930 ca         1 U6R      -0.033000
     16 C6          35.4980    41.5800    16.9320 ca         1 U6R      -0.178500
     17 O           34.9090    43.4110    18.3400 os         1 U6R      -0.336100
     18 C           34.9070    44.8000    18.7130 c3         1 U6R       0.145900
     19 N1          40.2720    39.2610    13.1300 nc         1 U6R      -0.096000
     20 N2          40.3560    39.3500    14.5340 nc         1 U6R      -0.366700
     21 H1          36.2870    44.8850    16.4970 ha         1 U6R       0.130000
     22 H2          37.3980    43.9570    14.5020 ha         1 U6R       0.122000
     23 H3          39.2570    39.7780    10.6090 ha         1 U6R       0.151000
     24 H4          37.2370    41.2960    10.3120 h4         1 U6R       0.152000
     25 H5          38.4270    39.8780    16.8790 hc         1 U6R       0.080700
     26 H6          39.6820    42.6570    16.1750 hc         1 U6R       0.074950
     27 H7          38.7060    42.2560    17.6720 hc         1 U6R       0.074950
     28 H8          40.3910    40.4790    18.2870 hc         1 U6R       0.074950
     29 H9          41.3630    40.8890    16.7910 hc         1 U6R       0.074950
     30 H10         35.1470    41.8790    12.3190 ho         1 U6R       0.458000
     31 H11         36.0850    39.9870    15.5910 ha         1 U6R       0.122000
     32 H12         34.9650    40.9160    17.6080 ha         1 U6R       0.130000
     33 H13         34.3470    44.9420    19.6460 h1         1 U6R       0.045700
     34 H14         35.9300    45.1630    18.8730 h1         1 U6R       0.045700
     35 H15         34.4320    45.4130    17.9360 h1         1 U6R       0.045700
     36 O1          35.9230    42.4670    12.2040 oh         1 U6R      -0.477000
@<TRIPOS>BOND
     1     1     2 ar  
     2     1    16 ar  
     3     1    17 1   
     4     2     3 ar  
     5     2    21 1   
     6     3    14 ar  
     7     3    22 1   
     8     4     5 2   
     9     4    13 1   
    10     4    14 1   
    11     5     6 1   
    12     5     9 1   
    13     6     7 1   
    14     6    19 2   
    15     7     8 2   
    16     7    23 1   
    17     8    13 1   
    18     8    24 1   
    19     9    10 1   
    20     9    20 2   
    21    10    11 1   
    22    10    12 1   
    23    10    25 1   
    24    11    12 1   
    25    11    26 1   
    26    11    27 1   
    27    12    28 1   
    28    12    29 1   
    29    13    36 1   
    30    14    15 ar  
    31    15    16 ar  
    32    15    31 1   
    33    16    32 1   
    34    17    18 1   
    35    18    33 1   
    36    18    34 1   
    37    18    35 1   
    38    19    20 1   
    39    30    36 1   
@<TRIPOS>SUBSTRUCTURE
     1 U6R         1 TEMP              0 ****  ****    0 ROOT
