@<TRIPOS>MOLECULE
U6R
   36    39     1     0     0
SMALL
abcg2


@<TRIPOS>ATOM
      1 C1          35.2430    42.9830    17.0480 ca         1 U6R       0.167100
      2 C2          36.4040    43.5810    16.5620 ca         1 U6R      -0.178500
      3 C3          37.0730    43.0100    15.4890 ca         1 U6R      -0.033000
      4 C7          37.3600    41.2710    13.7650 cc         1 U6R       0.126000
      5 C8          38.6440    40.7820    13.8860 cd         1 U6R      -0.304900
      6 C9          39.3550    40.2730    12.7520 cd         1 U6R      -0.070000
      7 C10         38.7170    40.2550    11.4920 cd         1 U6R      -0.070000
      8 C11         37.4500    40.7280    11.4220 cc         1 U6R      -0.142000
      9 C12         39.5750    40.6050    14.9470 cd         1 U6R       0.394900
     10 C13         39.4200    40.9380    16.3750 cx         1 U6R      -0.147000
     11 C14         40.1320    42.1330    16.9530 cx         1 U6R      -0.118900
     12 C15         40.5610    40.7520    17.3270 cx         1 U6R      -0.118900
     13 N           36.8110    41.2050    12.5370 na         1 U6R       0.176000
     14 C4          36.5970    41.8600    14.8750 ca         1 U6R      -0.121000
     15 C5          35.4280    41.2710    15.3610 ca         1 U6R      -0.033000
     16 C6          34.7640    41.8190    16.4380 ca         1 U6R      -0.178500
     17 O           34.5290    43.4430    18.0840 os         1 U6R      -0.336100
     18 C           34.9380    44.6410    18.7160 c3         1 U6R       0.145900
     19 N1          40.5560    39.8660    13.1100 nc         1 U6R      -0.096000
     20 N2          40.6690    40.0700    14.4450 nc         1 U6R      -0.366700
     21 H1          36.8060    44.4820    17.0040 ha         1 U6R       0.130000
     22 H2          37.9790    43.4800    15.1270 ha         1 U6R       0.122000
     23 H3          39.2010    39.8810    10.6010 ha         1 U6R       0.151000
     24 H4          36.8740    40.7660    10.5100 h4         1 U6R       0.152000
     25 H5          38.4290    40.7540    16.7740 hc         1 U6R       0.080700
     26 H6          40.7700    42.7000    16.2870 hc         1 U6R       0.074950
     27 H7          39.6020    42.7310    17.6840 hc         1 U6R       0.074950
     28 H8          40.3270    40.3940    18.3210 hc         1 U6R       0.074950
     29 H9          41.4970    40.3850    16.9270 hc         1 U6R       0.074950
     30 H10         34.9380    41.0660    12.3910 ho         1 U6R       0.458000
     31 H11         35.0450    40.3630    14.9130 ha         1 U6R       0.122000
     32 H12         33.8650    41.3490    16.8180 ha         1 U6R       0.130000
     33 H13         34.2210    44.8290    19.5120 h1         1 U6R       0.045700
     34 H14         35.9350    44.5510    19.1540 h1         1 U6R       0.045700
     35 H15         34.9290    45.4880    18.0260 h1         1 U6R       0.045700
     36 O1          35.5950    41.7770    12.3370 oh         1 U6R      -0.477000
@<TRIPOS>BOND
     1     1     2 ar  
     2     1    16 ar  
     3     1    17 1   
     4     2     3 ar  
     5     2    21 1   
     6     3    14 ar  
     7     3    22 1   
     8     4     5 2   
     9     4    13 1   
    10     4    14 1   
    11     5     6 1   
    12     5     9 1   
    13     6     7 1   
    14     6    19 2   
    15     7     8 2   
    16     7    23 1   
    17     8    13 1   
    18     8    24 1   
    19     9    10 1   
    20     9    20 2   
    21    10    11 1   
    22    10    12 1   
    23    10    25 1   
    24    11    12 1   
    25    11    26 1   
    26    11    27 1   
    27    12    28 1   
    28    12    29 1   
    29    13    36 1   
    30    14    15 ar  
    31    15    16 ar  
    32    15    31 1   
    33    16    32 1   
    34    17    18 1   
    35    18    33 1   
    36    18    34 1   
    37    18    35 1   
    38    19    20 1   
    39    30    36 1   
@<TRIPOS>SUBSTRUCTURE
     1 U6R         1 TEMP              0 ****  ****    0 ROOT
