@<TRIPOS>MOLECULE
U6S
   49    53     1     0     0
SMALL
abcg2


@<TRIPOS>ATOM
      1 C13         81.0040    43.5410    52.1810 cc         1 U6S       0.137900
      2 C18         78.4270    39.4930    52.4440 c          1 U6S       0.621700
      3 C17         79.3590    40.4210    51.7150 cc         1 U6S      -0.057600
      4 C16         80.6330    41.0010    49.7420 cd         1 U6S       0.304900
      5 C15         79.7720    40.1180    50.4400 cd         1 U6S      -0.114000
      6 C19         81.7730    47.7840    53.7110 cx         1 U6S      -0.127400
      7 C20         80.5950    46.8750    53.9390 cx         1 U6S      -0.127400
      8 C21         81.4180    46.7430    52.6850 cx         1 U6S      -0.139700
      9 C22         82.3540    45.5780    52.4670 c3         1 U6S       0.254800
     10 C11         76.5680    40.1480    55.5720 cp         1 U6S      -0.045000
     11 C12         77.1310    39.3530    54.5560 ca         1 U6S      -0.059000
     12 C1          77.2470    44.3670    55.7840 ca         1 U6S      -0.105000
     13 C2          76.5790    43.8220    54.6920 ca         1 U6S      -0.109500
     14 C3          77.6850    43.5360    56.8100 ca         1 U6S      -0.109500
     15 C4          76.3630    42.4520    54.6180 ca         1 U6S      -0.088500
     16 C5          77.4560    42.1660    56.7450 ca         1 U6S      -0.088500
     17 C6          75.7760    39.5100    56.5210 ca         1 U6S      -0.132000
     18 C7          75.5470    38.1450    56.4240 ca         1 U6S       0.305900
     19 C8          76.8410    37.9840    54.5410 ca         1 U6S       0.313900
     20 C9          80.3580    43.3860    53.4010 cd         1 U6S      -0.107400
     21 C10         76.8000    41.6110    55.6440 cp         1 U6S      -0.051000
     22 C14         79.8370    41.6230    52.2710 cc         1 U6S      -0.132000
     23 N1          76.0630    37.3930    55.4490 nb         1 U6S      -0.644000
     24 N2          79.6530    42.2100    53.4380 nd         1 U6S      -0.270600
     25 N3          81.0860    42.1340    50.2170 nc         1 U6S      -0.459800
     26 N4          80.6730    42.4190    51.4660 na         1 U6S       0.176900
     27 N5          78.0050    39.9610    53.6460 ns         1 U6S      -0.138000
     28 N6          81.7800    44.5210    51.6360 nu         1 U6S      -0.797200
     29 O1          78.0910    38.4230    51.9490 o          1 U6S      -0.587100
     30 H11         80.9600    40.7630    48.7390 h4         1 U6S       0.042100
     31 H10         79.4360    39.2100    49.9630 ha         1 U6S       0.158000
     32 H12         81.5880    48.8220    53.4690 hc         1 U6S       0.072700
     33 H15         79.5990    47.2880    53.8540 hc         1 U6S       0.072700
     34 H14         80.7040    46.1130    54.6990 hc         1 U6S       0.072700
     35 H16         80.9610    47.1100    51.7730 hc         1 U6S       0.090700
     36 H17         82.6810    45.1780    53.4350 h1         1 U6S       0.045200
     37 H18         83.2450    45.9250    51.9430 h1         1 U6S       0.045200
     38 H1          77.4270    45.4330    55.8340 ha         1 U6S       0.110000
     39 H2          76.2320    44.4640    53.8920 ha         1 U6S       0.113000
     40 H3          78.2060    43.9530    57.6630 ha         1 U6S       0.113000
     41 H4          75.8520    42.0310    53.7620 ha         1 U6S       0.118000
     42 H5          77.8020    41.5190    57.5420 ha         1 U6S       0.118000
     43 H6          75.3280    40.0840    57.3210 ha         1 U6S       0.125000
     44 H7          74.9240    37.6400    57.1540 h4         1 U6S       0.021100
     45 H8          77.2620    37.3570    53.7710 h4         1 U6S       0.050100
     46 H9          80.3630    44.0630    54.2350 h4         1 U6S       0.237000
     47 H19         78.3710    40.8790    53.9130 hn         1 U6S       0.208000
     48 H20         82.3590    44.2040    50.8720 hn         1 U6S       0.490000
     49 H13         82.6580    47.6100    54.3110 hc         1 U6S       0.072700
@<TRIPOS>BOND
     1     1    20 2   
     2     1    26 1   
     3     1    28 1   
     4     2     3 1   
     5     2    27 1   
     6     2    29 2   
     7     3     5 2   
     8     3    22 1   
     9     4     5 1   
    10     4    25 2   
    11     4    30 1   
    12     5    31 1   
    13     6     7 1   
    14     6     8 1   
    15     6    32 1   
    16     6    49 1   
    17     7     8 1   
    18     7    33 1   
    19     7    34 1   
    20     8     9 1   
    21     8    35 1   
    22     9    28 1   
    23     9    36 1   
    24     9    37 1   
    25    10    11 ar  
    26    10    17 ar  
    27    10    21 1   
    28    11    19 ar  
    29    11    27 1   
    30    12    13 ar  
    31    12    14 ar  
    32    12    38 1   
    33    13    15 ar  
    34    13    39 1   
    35    14    16 ar  
    36    14    40 1   
    37    15    21 ar  
    38    15    41 1   
    39    16    21 ar  
    40    16    42 1   
    41    17    18 ar  
    42    17    43 1   
    43    18    23 ar  
    44    18    44 1   
    45    19    23 ar  
    46    19    45 1   
    47    20    24 1   
    48    20    46 1   
    49    22    24 2   
    50    22    26 1   
    51    25    26 1   
    52    27    47 1   
    53    28    48 1   
@<TRIPOS>SUBSTRUCTURE
     1 U6S         1 TEMP              0 ****  ****    0 ROOT
