@<TRIPOS>MOLECULE
U6S
   49    53     1     0     0
SMALL
No Charge or Current Charge


@<TRIPOS>ATOM
      1 C13         81.2420    43.4030    52.3480 cc         1 U6S       0.137900
      2 C18         78.2970    39.5340    52.3040 c          1 U6S       0.621700
      3 C17         79.3010    40.4370    51.6480 cc         1 U6S      -0.057600
      4 C16         80.6340    41.0830    49.7070 cd         1 U6S       0.304900
      5 C15         79.6890    40.1980    50.3430 cd         1 U6S      -0.114000
      6 C19         81.2770    47.8780    53.4300 cx         1 U6S      -0.127400
      7 C20         80.2240    46.8050    53.5700 cx         1 U6S      -0.127400
      8 C21         81.3220    46.6560    52.5390 cx         1 U6S      -0.139700
      9 C22         82.4330    45.6230    52.6960 c3         1 U6S       0.254800
     10 C11         76.5610    40.1670    55.5810 cp         1 U6S      -0.045000
     11 C12         77.0230    39.3410    54.5210 ca         1 U6S      -0.059000
     12 C1          77.6770    44.3340    55.9740 ca         1 U6S      -0.105000
     13 C2          77.0850    43.8770    54.7860 ca         1 U6S      -0.109500
     14 C3          77.8940    43.4410    57.0360 ca         1 U6S      -0.109500
     15 C4          76.7160    42.5260    54.6580 ca         1 U6S      -0.088500
     16 C5          77.5250    42.0900    56.9080 ca         1 U6S      -0.088500
     17 C6          75.7120    39.5600    56.5340 ca         1 U6S      -0.132000
     18 C7          75.3490    38.2100    56.3990 ca         1 U6S       0.305900
     19 C8          76.6080    37.9880    54.4660 ca         1 U6S       0.313900
     20 C9          80.6060    43.1960    53.5490 cd         1 U6S      -0.107400
     21 C10         76.9400    41.6060    55.7130 cp         1 U6S      -0.051000
     22 C14         79.9180    41.5770    52.2720 cc         1 U6S      -0.132000
     23 N1          75.7850    37.4290    55.3860 nb         1 U6S      -0.644000
     24 N2          79.7960    42.0680    53.4960 nd         1 U6S      -0.270600
     25 N3          81.2070    42.1610    50.2570 nc         1 U6S      -0.459800
     26 N4          80.8020    42.3570    51.5670 na         1 U6S       0.176900
     27 N5          77.9260    39.9140    53.5830 ns         1 U6S      -0.138000
     28 N6          82.1140    44.4020    51.9480 nu         1 U6S      -0.797200
     29 O1          77.8190    38.5500    51.7460 o          1 U6S      -0.587100
     30 H11         80.9450    40.9130    48.6840 h4         1 U6S       0.042100
     31 H10         79.2890    39.3610    49.7810 ha         1 U6S       0.158000
     32 H12         80.9810    48.8230    52.9790 hc         1 U6S       0.072700
     33 H15         79.2210    47.0250    53.2120 hc         1 U6S       0.072700
     34 H14         80.2610    46.1810    54.4600 hc         1 U6S       0.072700
     35 H16         81.0500    46.8150    51.4980 hc         1 U6S       0.090700
     36 H17         82.5790    45.3890    53.7600 h1         1 U6S       0.045200
     37 H18         83.3720    46.0500    52.3200 h1         1 U6S       0.045200
     38 H1          77.9650    45.3790    56.0730 ha         1 U6S       0.110000
     39 H2          76.9120    44.5680    53.9630 ha         1 U6S       0.113000
     40 H3          78.3500    43.7940    57.9590 ha         1 U6S       0.113000
     41 H4          76.2510    42.1880    53.7350 ha         1 U6S       0.118000
     42 H5          77.7030    41.4070    57.7350 ha         1 U6S       0.118000
     43 H6          75.3250    40.1350    57.3700 ha         1 U6S       0.125000
     44 H7          74.6900    37.7380    57.1270 h4         1 U6S       0.021100
     45 H8          76.9590    37.3160    53.6860 h4         1 U6S       0.050100
     46 H9          80.6830    43.7960    54.4480 h4         1 U6S       0.237000
     47 H19         78.3650    40.7700    53.9000 hn         1 U6S       0.208000
     48 H20         82.4290    44.3410    50.9760 hn         1 U6S       0.490000
     49 H13         82.0190    47.9650    54.2200 hc         1 U6S       0.072700
@<TRIPOS>BOND
     1     1    20 2   
     2     1    26 1   
     3     1    28 1   
     4     2     3 1   
     5     2    27 1   
     6     2    29 2   
     7     3     5 2   
     8     3    22 1   
     9     4     5 1   
    10     4    25 2   
    11     4    30 1   
    12     5    31 1   
    13     6     7 1   
    14     6     8 1   
    15     6    32 1   
    16     6    49 1   
    17     7     8 1   
    18     7    33 1   
    19     7    34 1   
    20     8     9 1   
    21     8    35 1   
    22     9    28 1   
    23     9    36 1   
    24     9    37 1   
    25    10    11 ar  
    26    10    17 ar  
    27    10    21 1   
    28    11    19 ar  
    29    11    27 1   
    30    12    13 ar  
    31    12    14 ar  
    32    12    38 1   
    33    13    15 ar  
    34    13    39 1   
    35    14    16 ar  
    36    14    40 1   
    37    15    21 ar  
    38    15    41 1   
    39    16    21 ar  
    40    16    42 1   
    41    17    18 ar  
    42    17    43 1   
    43    18    23 ar  
    44    18    44 1   
    45    19    23 ar  
    46    19    45 1   
    47    20    24 1   
    48    20    46 1   
    49    22    24 2   
    50    22    26 1   
    51    25    26 1   
    52    27    47 1   
    53    28    48 1   
@<TRIPOS>SUBSTRUCTURE
     1 U6S         1 TEMP              0 ****  ****    0 ROOT
