@<TRIPOS>MOLECULE
U6T
   51    54     1     0     0
SMALL
abcg2


@<TRIPOS>ATOM
      1 C4          -1.5370    25.9010    50.6510 ca         1 U6T       0.182900
      2 C6          -1.1370    24.8130    52.6390 ca         1 U6T       0.451900
      3 C8          -2.0650    25.6860    53.2350 ca         1 U6T      -0.100600
      4 C9          -2.6570    26.6220    52.3980 ca         1 U6T       0.123500
      5 C11         -3.3810    26.8010    54.4460 cc         1 U6T       0.400700
      6 C13         -4.3590    28.4410    52.7910 c6         1 U6T       0.091300
      7 C14         -3.9050    29.7420    53.4450 c6         1 U6T      -0.091900
      8 F32         -9.9480    33.2240    60.3880 f          1 U6T      -0.101000
      9 C29        -11.2050    32.8550    60.2040 c3         1 U6T       0.140000
     10 F30        -11.9100    33.1290    61.2890 f          1 U6T      -0.101000
     11 F31        -11.7090    33.5150    59.1730 f          1 U6T      -0.101000
     12 O2         -10.6120    30.3990    60.9870 o          1 U6T      -0.473000
     13 O28        -12.6800    30.7630    59.5770 o          1 U6T      -0.473000
     14 C25        -10.3160    30.8980    58.4200 ca         1 U6T      -0.334500
     15 C24         -8.9460    30.6980    58.5300 ca         1 U6T       0.034000
     16 C23         -8.1610    30.6330    57.3960 ca         1 U6T      -0.180500
     17 C26        -10.9180    31.0230    57.1710 ca         1 U6T       0.034000
     18 C27        -10.1350    30.9560    56.0410 ca         1 U6T      -0.180500
     19 C22         -8.7470    30.7730    56.1320 ca         1 U6T       0.058000
     20 N21         -8.0430    30.7310    54.9410 ns         1 U6T      -0.152000
     21 O20         -5.8840    30.6760    55.6480 o          1 U6T      -0.555100
     22 C16         -6.3000    30.6370    53.2700 c6         1 U6T      -0.145700
     23 C15         -4.8110    30.9060    53.0500 c6         1 U6T      -0.061400
     24 C17         -6.7000    29.3010    52.6210 c6         1 U6T      -0.061400
     25 C18         -5.8250    28.1460    53.0900 c6         1 U6T      -0.091900
     26 N10         -3.5050    27.3330    53.1940 na         1 U6T      -0.278300
     27 N7          -2.5330    25.8160    54.5160 nd         1 U6T      -0.550100
     28 N5          -2.4250    26.7720    51.0940 nb         1 U6T      -0.227000
     29 N3          -0.8960    24.9510    51.3300 nb         1 U6T      -0.302000
     30 N12         -0.4890    23.8700    53.3270 nv         1 U6T      -1.063900
     31 H1          -1.2950    25.9600    49.5950 h5         1 U6T       0.045100
     32 H2          -3.9490    27.1860    55.2800 h5         1 U6T       0.068800
     33 H3          -4.2390    28.5280    51.7080 h1         1 U6T       0.090700
     34 H4          -3.8970    29.6200    54.5290 hc         1 U6T       0.062200
     35 H5          -2.8790    29.9600    53.1420 hc         1 U6T       0.062200
     36 H6          -8.4750    30.5820    59.4970 ha         1 U6T       0.144000
     37 H7          -7.1020    30.4770    57.5050 ha         1 U6T       0.139000
     38 H8         -11.9850    31.1650    57.0710 ha         1 U6T       0.144000
     39 H9         -10.6030    31.0510    55.0690 ha         1 U6T       0.139000
     40 H10         -8.6110    30.8020    54.1090 hn         1 U6T       0.156000
     41 H11         -6.8680    31.4300    52.7700 hc         1 U6T       0.064700
     42 H12         -4.6760    31.1100    51.9840 hc         1 U6T       0.053450
     43 H13         -4.5020    31.8100    53.5750 hc         1 U6T       0.053450
     44 H14         -7.7510    29.0700    52.8010 hc         1 U6T       0.053450
     45 H15         -6.5970    29.4150    51.5380 hc         1 U6T       0.053450
     46 H16         -5.9650    27.9760    54.1620 hc         1 U6T       0.062200
     47 H17         -6.1260    27.2270    52.5830 hc         1 U6T       0.062200
     48 H18          0.1210    23.2270    52.8520 hn         1 U6T       0.507000
     49 H19         -0.6980    23.7010    54.2950 hn         1 U6T       0.507000
     50 C19         -6.6870    30.6800    54.7380 c          1 U6T       0.612100
     51 S1         -11.2830    31.0330    59.8670 sy         1 U6T       1.028500
@<TRIPOS>BOND
     1     1    28 ar  
     2     1    29 ar  
     3     1    31 1   
     4     2     3 ar  
     5     2    29 ar  
     6     2    30 1   
     7     3     4 ar  
     8     3    27 1   
     9     4    26 1   
    10     4    28 ar  
    11     5    26 1   
    12     5    27 2   
    13     5    32 1   
    14     6     7 1   
    15     6    25 1   
    16     6    26 1   
    17     6    33 1   
    18     7    23 1   
    19     7    34 1   
    20     7    35 1   
    21     8     9 1   
    22     9    10 1   
    23     9    11 1   
    24     9    51 1   
    25    12    51 2   
    26    13    51 2   
    27    14    15 ar  
    28    14    17 ar  
    29    14    51 1   
    30    15    16 ar  
    31    15    36 1   
    32    16    19 ar  
    33    16    37 1   
    34    17    18 ar  
    35    17    38 1   
    36    18    19 ar  
    37    18    39 1   
    38    19    20 1   
    39    20    40 1   
    40    20    50 1   
    41    21    50 2   
    42    22    23 1   
    43    22    24 1   
    44    22    41 1   
    45    22    50 1   
    46    23    42 1   
    47    23    43 1   
    48    24    25 1   
    49    24    44 1   
    50    24    45 1   
    51    25    46 1   
    52    25    47 1   
    53    30    48 1   
    54    30    49 1   
@<TRIPOS>SUBSTRUCTURE
     1 U6T         1 TEMP              0 ****  ****    0 ROOT
