@<TRIPOS>MOLECULE
U6T
   51    54     1     0     0
SMALL
No Charge or Current Charge


@<TRIPOS>ATOM
      1 C4          -1.0620    26.2740    50.3510 ca         1 U6T       0.182900
      2 C6          -0.3610    25.3240    52.3110 ca         1 U6T       0.451900
      3 C8          -1.4320    25.9570    52.9760 ca         1 U6T      -0.100600
      4 C9          -2.2770    26.7430    52.2300 ca         1 U6T       0.123500
      5 C11         -2.8880    26.6940    54.3900 cc         1 U6T       0.400700
      6 C13         -4.3100    28.1090    52.7560 c6         1 U6T       0.091300
      7 C14         -4.1900    29.4660    53.5030 c6         1 U6T      -0.091900
      8 F32         -9.6410    33.3640    60.8430 f          1 U6T      -0.101000
      9 C29        -10.9500    33.4950    60.5190 c3         1 U6T       0.140000
     10 F30        -11.5970    33.9620    61.6150 f          1 U6T      -0.101000
     11 F31        -11.0390    34.4450    59.5570 f          1 U6T      -0.101000
     12 O2         -11.4010    30.8930    60.9970 o          1 U6T      -0.473000
     13 O28        -13.0370    32.1570    59.4910 o          1 U6T      -0.473000
     14 C25        -10.6660    31.4650    58.5060 ca         1 U6T      -0.334500
     15 C24         -9.4910    30.7030    58.6590 ca         1 U6T       0.034000
     16 C23         -8.7110    30.3800    57.5360 ca         1 U6T      -0.180500
     17 C26        -11.0500    31.9060    57.2250 ca         1 U6T       0.034000
     18 C27        -10.2630    31.5780    56.1090 ca         1 U6T      -0.180500
     19 C22         -9.0910    30.8120    56.2470 ca         1 U6T       0.058000
     20 N21         -8.3520    30.5270    55.0680 ns         1 U6T      -0.152000
     21 O20         -6.6340    29.1240    55.7040 o          1 U6T      -0.555100
     22 C16         -6.7350    29.7410    53.3600 c6         1 U6T      -0.145700
     23 C15         -5.3550    30.4190    53.1320 c6         1 U6T      -0.061400
     24 C17         -6.8590    28.3600    52.6580 c6         1 U6T      -0.061400
     25 C18         -5.6780    27.4280    53.0330 c6         1 U6T      -0.091900
     26 N10         -3.1950    27.2090    53.1270 na         1 U6T      -0.278300
     27 N7          -1.7950    25.9090    54.3300 nd         1 U6T      -0.550100
     28 N5          -2.1160    26.9230    50.9040 nb         1 U6T      -0.227000
     29 N3          -0.1720    25.4780    50.9910 nb         1 U6T      -0.302000
     30 N12          0.5300    24.5220    52.9540 nv         1 U6T      -1.063900
     31 H1          -0.9170    26.4070    49.2800 h5         1 U6T       0.045100
     32 H2          -3.4740    26.9200    55.2730 h5         1 U6T       0.068800
     33 H3          -4.2490    28.3140    51.6760 h1         1 U6T       0.090700
     34 H4          -4.1760    29.3010    54.5890 hc         1 U6T       0.062200
     35 H5          -3.2320    29.9430    53.2520 hc         1 U6T       0.062200
     36 H6          -9.1730    30.3610    59.6440 ha         1 U6T       0.144000
     37 H7          -7.8100    29.7970    57.6950 ha         1 U6T       0.139000
     38 H8         -11.9510    32.5020    57.0860 ha         1 U6T       0.144000
     39 H9         -10.5720    31.9250    55.1250 ha         1 U6T       0.139000
     40 H10         -8.7230    30.9750    54.2400 hn         1 U6T       0.156000
     41 H11         -7.4520    30.3870    52.8330 hc         1 U6T       0.064700
     42 H12         -5.2600    30.7050    52.0750 hc         1 U6T       0.053450
     43 H13         -5.2840    31.3510    53.7110 hc         1 U6T       0.053450
     44 H14         -7.8160    27.8840    52.9120 hc         1 U6T       0.053450
     45 H15         -6.8670    28.5050    51.5680 hc         1 U6T       0.053450
     46 H16         -5.7520    27.1410    54.0910 hc         1 U6T       0.062200
     47 H17         -5.7510    26.4950    52.4570 hc         1 U6T       0.062200
     48 H18          1.0770    23.8740    52.3950 hn         1 U6T       0.507000
     49 H19          0.2810    24.2170    53.8930 hn         1 U6T       0.507000
     50 C19         -7.2210    29.7560    54.8350 c          1 U6T       0.612100
     51 S1         -11.6650    31.8940    59.9510 sy         1 U6T       1.028500
@<TRIPOS>BOND
     1     1    28 ar  
     2     1    29 ar  
     3     1    31 1   
     4     2     3 ar  
     5     2    29 ar  
     6     2    30 1   
     7     3     4 ar  
     8     3    27 1   
     9     4    26 1   
    10     4    28 ar  
    11     5    26 1   
    12     5    27 2   
    13     5    32 1   
    14     6     7 1   
    15     6    25 1   
    16     6    26 1   
    17     6    33 1   
    18     7    23 1   
    19     7    34 1   
    20     7    35 1   
    21     8     9 1   
    22     9    10 1   
    23     9    11 1   
    24     9    51 1   
    25    12    51 2   
    26    13    51 2   
    27    14    15 ar  
    28    14    17 ar  
    29    14    51 1   
    30    15    16 ar  
    31    15    36 1   
    32    16    19 ar  
    33    16    37 1   
    34    17    18 ar  
    35    17    38 1   
    36    18    19 ar  
    37    18    39 1   
    38    19    20 1   
    39    20    40 1   
    40    20    50 1   
    41    21    50 2   
    42    22    23 1   
    43    22    24 1   
    44    22    41 1   
    45    22    50 1   
    46    23    42 1   
    47    23    43 1   
    48    24    25 1   
    49    24    44 1   
    50    24    45 1   
    51    25    46 1   
    52    25    47 1   
    53    30    48 1   
    54    30    49 1   
@<TRIPOS>SUBSTRUCTURE
     1 U6T         1 TEMP              0 ****  ****    0 ROOT
