@<TRIPOS>MOLECULE
U6V
   72    74     1     0     0
SMALL
No Charge or Current Charge


@<TRIPOS>ATOM
      1 C11        -24.5670     8.1980    11.0350 c3         1 U6V       0.154300
      2 C21        -18.5380     4.0810    14.0030 ca         1 U6V      -0.108500
      3 C22        -19.0740     4.4900    15.2350 ca         1 U6V      -0.112000
      4 C24        -19.8500     6.5530    14.2050 ca         1 U6V      -0.107000
      5 C25        -20.7940     5.2420     7.5960 c3         1 U6V      -0.114400
      6 N37        -25.0230     0.4040    16.4410 n8         1 U6V      -1.007100
      7 C01        -23.0080     3.0350    15.5470 ca         1 U6V      -0.004000
      8 C02        -22.8480     4.1260    14.6760 ca         1 U6V      -0.131000
      9 C03        -23.8440     5.1160    14.5820 ca         1 U6V      -0.028300
     10 C04        -25.0060     5.0050    15.3670 ca         1 U6V      -0.131000
     11 C05        -25.1740     3.9150    16.2400 ca         1 U6V      -0.004000
     12 C06        -24.1730     2.9250    16.3330 ca         1 U6V      -0.273500
     13 C07        -23.6640     6.2900    13.6340 c3         1 U6V      -0.069100
     14 C08        -24.2410     5.9960    12.2340 c3         1 U6V       0.112000
     15 C10        -22.6410     6.6960    10.3850 c          1 U6V       0.559100
     16 C13        -21.7950     5.3990    10.6770 c3         1 U6V       0.144800
     17 C14        -24.2350     9.2600    12.0760 ca         1 U6V      -0.101300
     18 C16        -19.4820     6.4160    10.3440 c3         1 U6V       0.206800
     19 C17        -20.2390     4.5350     8.8560 c3         1 U6V       0.216800
     20 C18        -19.4930     7.0770    11.7520 c3         1 U6V      -0.039100
     21 C19        -19.3290     6.1470    12.9590 ca         1 U6V      -0.062300
     22 C20        -18.6600     4.9060    12.8710 ca         1 U6V      -0.107000
     23 C23        -19.7270     5.7290    15.3360 ca         1 U6V      -0.108500
     24 C26        -22.2640     4.8990     7.2830 c3         1 U6V       0.158800
     25 C28        -25.2020     9.6510    13.0250 ca         1 U6V      -0.074000
     26 C29        -24.8870    10.6170    13.9980 ca         1 U6V      -0.149000
     27 C30        -23.6080    11.1940    14.0210 ca         1 U6V       0.172000
     28 C31        -22.6410    10.8130    13.0790 ca         1 U6V      -0.149000
     29 C32        -22.9540     9.8470    12.1060 ca         1 U6V      -0.074000
     30 F33        -23.3070    12.1210    14.9560 f          1 U6V      -0.180000
     31 N09        -23.7740     6.9550    11.2020 n          1 U6V      -0.424800
     32 N15        -20.3890     5.2450    10.1570 n3         1 U6V      -0.785600
     33 N27        -22.7180     5.5640     6.0510 n8         1 U6V      -0.995200
     34 O12        -22.3320     7.4880     9.5000 o          1 U6V      -0.590100
     35 O35        -23.0760     0.9860    17.8310 o          1 U6V      -0.542000
     36 O36        -25.4480     1.7970    18.3960 o          1 U6V      -0.542000
     37 S34        -24.3780     1.5270    17.4390 sy         1 U6V       1.127600
     38 H112       -24.4120     8.6200    10.0340 h1         1 U6V       0.053200
     39 H111       -25.6330     7.9450    11.0990 h1         1 U6V       0.053200
     40 H211       -18.0280     3.1240    13.9240 ha         1 U6V       0.110500
     41 H221       -18.9800     3.8500    16.1100 ha         1 U6V       0.112000
     42 H241       -20.3570     7.5100    14.2960 ha         1 U6V       0.102500
     43 H251       -20.1860     4.9220     6.7410 hc         1 U6V       0.058700
     44 H252       -20.6620     6.3260     7.6790 hc         1 U6V       0.058700
     45 H372       -25.8470     0.1270    16.9700 hn         1 U6V       0.474500
     46 H371       -25.3970     0.9740    15.6870 hn         1 U6V       0.474500
     47 H011       -22.2260     2.2790    15.6050 ha         1 U6V       0.139500
     48 H021       -21.9470     4.1990    14.0720 ha         1 U6V       0.118500
     49 H041       -25.7830     5.7630    15.3020 ha         1 U6V       0.118500
     50 H051       -26.0810     3.8490    16.8400 ha         1 U6V       0.139500
     51 H071       -22.6000     6.5310    13.5420 hc         1 U6V       0.062200
     52 H072       -24.1410     7.1880    14.0430 hc         1 U6V       0.062200
     53 H081       -25.3370     6.0330    12.2920 h1         1 U6V       0.052200
     54 H082       -23.9860     4.9710    11.9380 h1         1 U6V       0.052200
     55 H131       -22.4060     4.5450    10.3580 h1         1 U6V       0.057700
     56 H132       -21.7370     5.3240    11.7690 h1         1 U6V       0.057700
     57 H162       -18.4500     6.1030    10.1370 h1         1 U6V       0.046200
     58 H161       -19.7150     7.1970     9.6080 h1         1 U6V       0.046200
     59 H172       -20.6920     3.5360     8.9240 h1         1 U6V       0.045200
     60 H171       -19.1670     4.3620     8.6840 h1         1 U6V       0.045200
     61 H181       -18.6960     7.8290    11.7730 hc         1 U6V       0.044700
     62 H182       -20.4260     7.6430    11.8550 hc         1 U6V       0.044700
     63 H201       -18.2370     4.5710    11.9280 ha         1 U6V       0.102500
     64 H231       -20.1410     6.0500    16.2900 ha         1 U6V       0.110500
     65 H261       -22.9190     5.2110     8.1060 h1         1 U6V       0.018200
     66 H262       -22.3690     3.8140     7.1500 h1         1 U6V       0.018200
     67 H281       -26.1930     9.2030    13.0150 ha         1 U6V       0.114500
     68 H291       -25.6300    10.9170    14.7310 ha         1 U6V       0.132000
     69 H311       -21.6530    11.2640    13.1030 ha         1 U6V       0.132000
     70 H321       -22.2020     9.5540    11.3780 ha         1 U6V       0.114500
     71 H271       -23.7130     5.3520     5.9050 hn         1 U6V       0.392500
     72 H2         -22.7110     6.5790     6.2070 hn         1 U6V       0.392500
@<TRIPOS>BOND
     1     1    17 1   
     2     1    31 1   
     3     1    38 1   
     4     1    39 1   
     5     2     3 ar  
     6     2    22 ar  
     7     2    40 1   
     8     3    23 ar  
     9     3    41 1   
    10     4    21 ar  
    11     4    23 ar  
    12     4    42 1   
    13     5    19 1   
    14     5    24 1   
    15     5    43 1   
    16     5    44 1   
    17     6    37 1   
    18     6    45 1   
    19     6    46 1   
    20     7     8 ar  
    21     7    12 ar  
    22     7    47 1   
    23     8     9 ar  
    24     8    48 1   
    25     9    10 ar  
    26     9    13 1   
    27    10    11 ar  
    28    10    49 1   
    29    11    12 ar  
    30    11    50 1   
    31    12    37 1   
    32    13    14 1   
    33    13    51 1   
    34    13    52 1   
    35    14    31 1   
    36    14    53 1   
    37    14    54 1   
    38    15    16 1   
    39    15    31 1   
    40    15    34 2   
    41    16    32 1   
    42    16    55 1   
    43    16    56 1   
    44    17    25 ar  
    45    17    29 ar  
    46    18    20 1   
    47    18    32 1   
    48    18    57 1   
    49    18    58 1   
    50    19    32 1   
    51    19    59 1   
    52    19    60 1   
    53    20    21 1   
    54    20    61 1   
    55    20    62 1   
    56    21    22 ar  
    57    22    63 1   
    58    23    64 1   
    59    24    33 1   
    60    24    65 1   
    61    24    66 1   
    62    25    26 ar  
    63    25    67 1   
    64    26    27 ar  
    65    26    68 1   
    66    27    28 ar  
    67    27    30 1   
    68    28    29 ar  
    69    28    69 1   
    70    29    70 1   
    71    33    71 1   
    72    33    72 1   
    73    35    37 2   
    74    36    37 2   
@<TRIPOS>SUBSTRUCTURE
     1 U6V         1 TEMP              0 ****  ****    0 ROOT
