@<TRIPOS>MOLECULE
U6V
   72    74     1     0     0
SMALL
bcc


@<TRIPOS>ATOM
      1 C11        -24.8100     7.7660    11.2260 c3         1 U6V       0.154300
      2 C21        -16.7700     5.1660    13.9130 ca         1 U6V      -0.126500
      3 C22        -17.3450     4.0330    14.4760 ca         1 U6V      -0.130000
      4 C24        -19.5220     4.8880    13.9110 ca         1 U6V      -0.125000
      5 C25        -20.3630     5.8800     8.1230 c3         1 U6V      -0.114400
      6 N37        -25.7450     0.2060    16.5790 n8         1 U6V      -0.896700
      7 C01        -24.0520     2.8620    16.0550 ca         1 U6V      -0.022000
      8 C02        -23.6100     3.8790    15.2290 ca         1 U6V      -0.149000
      9 C03        -24.4850     4.8610    14.7650 ca         1 U6V      -0.028300
     10 C04        -25.8240     4.7940    15.1390 ca         1 U6V      -0.149000
     11 C05        -26.2870     3.7800    15.9620 ca         1 U6V      -0.022000
     12 C06        -25.3930     2.8200    16.4140 ca         1 U6V      -0.273500
     13 C07        -24.0080     5.9470    13.8490 c3         1 U6V      -0.069100
     14 C08        -24.3250     5.6160    12.3870 c3         1 U6V       0.112000
     15 C10        -22.7730     6.5980    10.7190 c          1 U6V       0.626100
     16 C13        -21.7630     5.4940    11.0550 c3         1 U6V       0.144800
     17 C14        -24.2220     9.1220    11.5340 ca         1 U6V      -0.101300
     18 C16        -19.8210     6.9800    11.1610 c3         1 U6V       0.206800
     19 C17        -19.9040     5.2260     9.4330 c3         1 U6V       0.216800
     20 C18        -19.8040     7.0860    12.6900 c3         1 U6V      -0.039100
     21 C19        -18.9620     6.0250    13.3380 ca         1 U6V      -0.062300
     22 C20        -17.5730     6.1490    13.3510 ca         1 U6V      -0.125000
     23 C23        -18.7270     3.8990    14.4760 ca         1 U6V      -0.126500
     24 C26        -21.6460     5.2820     7.5640 c3         1 U6V       0.158800
     25 C28        -23.2970     9.3120    12.5540 ca         1 U6V      -0.092000
     26 C29        -22.8020    10.5740    12.8520 ca         1 U6V      -0.167000
     27 C30        -23.2520    11.6520    12.1160 ca         1 U6V       0.136900
     28 C31        -24.1710    11.5050    11.0960 ca         1 U6V      -0.167000
     29 C32        -24.6460    10.2320    10.8120 ca         1 U6V      -0.092000
     30 F33        -22.7790    12.8790    12.3990 f          1 U6V      -0.144900
     31 N09        -23.9070     6.6530    11.4610 n          1 U6V      -0.491800
     32 N15        -20.4050     5.7480    10.6850 n3         1 U6V      -0.785600
     33 N27        -22.1050     6.0280     6.4000 n8         1 U6V      -0.884800
     34 O12        -22.5610     7.4240     9.8450 o          1 U6V      -0.590100
     35 O35        -24.9910     1.4150    18.6090 o          1 U6V      -0.612800
     36 O36        -27.3360     1.8180    17.8470 o          1 U6V      -0.612800
     37 S34        -25.9430     1.5510    17.5160 sy         1 U6V       1.269200
     38 H112       -25.1730     7.7530    10.1960 h1         1 U6V       0.053200
     39 H111       -25.6870     7.6090    11.8580 h1         1 U6V       0.053200
     40 H211       -15.6940     5.2860    13.9140 ha         1 U6V       0.128500
     41 H221       -16.7230     3.2650    14.9160 ha         1 U6V       0.130000
     42 H241       -20.6000     4.7680    13.9240 ha         1 U6V       0.120500
     43 H251       -19.5760     5.7620     7.3720 hc         1 U6V       0.058700
     44 H252       -20.4860     6.9550     8.2760 hc         1 U6V       0.058700
     45 H372       -25.7140    -0.6390    17.1410 hn         1 U6V       0.419300
     46 H371       -26.4490     0.1220    15.8530 hn         1 U6V       0.419300
     47 H011       -23.3550     2.1140    16.4100 ha         1 U6V       0.157500
     48 H021       -22.5640     3.9150    14.9490 ha         1 U6V       0.136500
     49 H041       -26.5180     5.5490    14.7900 ha         1 U6V       0.136500
     50 H051       -27.3290     3.7490    16.2460 ha         1 U6V       0.157500
     51 H071       -22.9290     6.0910    13.9660 hc         1 U6V       0.062200
     52 H072       -24.4810     6.8940    14.1210 hc         1 U6V       0.062200
     53 H081       -25.4010     5.4710    12.2720 h1         1 U6V       0.052200
     54 H082       -23.8730     4.6630    12.1120 h1         1 U6V       0.052200
     55 H131       -22.0930     4.5690    10.5710 h1         1 U6V       0.057700
     56 H132       -21.8170     5.2840    12.1290 h1         1 U6V       0.057700
     57 H162       -18.7860     7.0160    10.8110 h1         1 U6V       0.046200
     58 H161       -20.3100     7.8770    10.7630 h1         1 U6V       0.046200
     59 H172       -20.1370     4.1550     9.3960 h1         1 U6V       0.045200
     60 H171       -18.8140     5.2840     9.4890 h1         1 U6V       0.045200
     61 H181       -19.4170     8.0750    12.9450 hc         1 U6V       0.044700
     62 H182       -20.8240     7.0560    13.0850 hc         1 U6V       0.044700
     63 H201       -17.1130     7.0310    12.9190 ha         1 U6V       0.120500
     64 H231       -19.1870     3.0230    14.9150 ha         1 U6V       0.128500
     65 H261       -22.4050     5.2130     8.3530 h1         1 U6V       0.018200
     66 H262       -21.4420     4.2530     7.2530 h1         1 U6V       0.018200
     67 H281       -22.9380     8.4700    13.1300 ha         1 U6V       0.132500
     68 H291       -22.0790    10.7110    13.6460 ha         1 U6V       0.150000
     69 H311       -24.5020    12.3630    10.5250 ha         1 U6V       0.150000
     70 H321       -25.3610    10.1080    10.0070 ha         1 U6V       0.132500
     71 H271       -22.9420     5.5920     6.0320 hn         1 U6V       0.337300
     72 H2         -22.3950     6.9510     6.7020 hn         1 U6V       0.337300
@<TRIPOS>BOND
     1     1    17 1   
     2     1    31 1   
     3     1    38 1   
     4     1    39 1   
     5     2     3 ar  
     6     2    22 ar  
     7     2    40 1   
     8     3    23 ar  
     9     3    41 1   
    10     4    21 ar  
    11     4    23 ar  
    12     4    42 1   
    13     5    19 1   
    14     5    24 1   
    15     5    43 1   
    16     5    44 1   
    17     6    37 1   
    18     6    45 1   
    19     6    46 1   
    20     7     8 ar  
    21     7    12 ar  
    22     7    47 1   
    23     8     9 ar  
    24     8    48 1   
    25     9    10 ar  
    26     9    13 1   
    27    10    11 ar  
    28    10    49 1   
    29    11    12 ar  
    30    11    50 1   
    31    12    37 1   
    32    13    14 1   
    33    13    51 1   
    34    13    52 1   
    35    14    31 1   
    36    14    53 1   
    37    14    54 1   
    38    15    16 1   
    39    15    31 1   
    40    15    34 2   
    41    16    32 1   
    42    16    55 1   
    43    16    56 1   
    44    17    25 ar  
    45    17    29 ar  
    46    18    20 1   
    47    18    32 1   
    48    18    57 1   
    49    18    58 1   
    50    19    32 1   
    51    19    59 1   
    52    19    60 1   
    53    20    21 1   
    54    20    61 1   
    55    20    62 1   
    56    21    22 ar  
    57    22    63 1   
    58    23    64 1   
    59    24    33 1   
    60    24    65 1   
    61    24    66 1   
    62    25    26 ar  
    63    25    67 1   
    64    26    27 ar  
    65    26    68 1   
    66    27    28 ar  
    67    27    30 1   
    68    28    29 ar  
    69    28    69 1   
    70    29    70 1   
    71    33    71 1   
    72    33    72 1   
    73    35    37 2   
    74    36    37 2   
@<TRIPOS>SUBSTRUCTURE
     1 U6V         1 TEMP              0 ****  ****    0 ROOT
