@<TRIPOS>MOLECULE
U6W
   13    13     1     0     0
SMALL
abcg2


@<TRIPOS>ATOM
      1 C03         13.0190   -16.6190    -0.1820 c5         1 U6W      -0.147200
      2 C04         12.8580   -16.3370     2.0960 c2         1 U6W       0.075900
      3 C05         12.8000   -17.2670     1.1490 c2         1 U6W      -0.305200
      4 C06         13.2040   -15.1660     0.1940 c          1 U6W       0.645100
      5 C07         12.6980   -16.3680     3.5730 c3         1 U6W      -0.037900
      6 O01         13.0960   -15.0550     1.5530 os         1 U6W      -0.343200
      7 O02         13.4080   -14.2030    -0.4970 o          1 U6W      -0.474000
      8 H1          12.1730   -16.7110    -0.8700 hc         1 U6W       0.093200
      9 H2          13.9010   -16.9770    -0.7190 hc         1 U6W       0.093200
     10 H3          12.6140   -18.3150     1.3140 ha         1 U6W       0.215000
     11 H4          13.1070   -15.4630     4.0180 hc         1 U6W       0.061367
     12 H5          11.6430   -16.4380     3.8500 hc         1 U6W       0.061367
     13 H6          13.2170   -17.2290     3.9940 hc         1 U6W       0.061367
@<TRIPOS>BOND
     1     1     3 1   
     2     1     4 1   
     3     1     8 1   
     4     1     9 1   
     5     2     3 2   
     6     2     5 1   
     7     2     6 1   
     8     3    10 1   
     9     4     6 1   
    10     4     7 2   
    11     5    11 1   
    12     5    12 1   
    13     5    13 1   
@<TRIPOS>SUBSTRUCTURE
     1 U6W         1 TEMP              0 ****  ****    0 ROOT
