@<TRIPOS>MOLECULE
U6W
   13    13     1     0     0
SMALL
No Charge or Current Charge


@<TRIPOS>ATOM
      1 C03         13.0750   -16.6250    -0.1860 c5         1 U6W      -0.147200
      2 C04         12.8430   -16.3040     2.0730 c2         1 U6W       0.075900
      3 C05         12.9200   -17.2820     1.1750 c2         1 U6W      -0.305200
      4 C06         13.0640   -15.1210     0.1680 c          1 U6W       0.645100
      5 C07         12.6830   -16.3730     3.5730 c3         1 U6W      -0.037900
      6 O01         12.9220   -15.0590     1.5310 os         1 U6W      -0.343200
      7 O02         13.1590   -14.1540    -0.5740 o          1 U6W      -0.474000
      8 H1          12.2550   -16.8380    -0.8800 hc         1 U6W       0.093200
      9 H2          14.0130   -16.8680    -0.6950 hc         1 U6W       0.093200
     10 H3          12.8780   -18.3520     1.3960 ha         1 U6W       0.215000
     11 H4          13.5300   -15.8960     4.0800 hc         1 U6W       0.061367
     12 H5          11.7670   -15.8650     3.8940 hc         1 U6W       0.061367
     13 H6          12.6290   -17.4120     3.9180 hc         1 U6W       0.061367
@<TRIPOS>BOND
     1     1     3 1   
     2     1     4 1   
     3     1     8 1   
     4     1     9 1   
     5     2     3 2   
     6     2     5 1   
     7     2     6 1   
     8     3    10 1   
     9     4     6 1   
    10     4     7 2   
    11     5    11 1   
    12     5    12 1   
    13     5    13 1   
@<TRIPOS>SUBSTRUCTURE
     1 U6W         1 TEMP              0 ****  ****    0 ROOT
