@<TRIPOS>MOLECULE
U6X
   46    47     1     0     0
SMALL
No Charge or Current Charge


@<TRIPOS>ATOM
      1 N1          14.8610    10.1590    10.3240 n3         1 U6X      -0.759600
      2 N3          14.9140     2.8200    18.1350 n8         1 U6X      -1.004100
      3 C4          16.9870    11.0950    10.7890 c5         1 U6X      -0.103400
      4 C5          16.6150     9.9990    11.8350 c5         1 U6X      -0.088400
      5 C6          15.5850     9.1090    11.0850 c5         1 U6X       0.164500
      6 C7          14.7150     8.2310    12.0260 c3         1 U6X       0.106000
      7 C8          14.9750     6.2550    13.5690 c          1 U6X       0.624700
      8 C10         17.3220     5.6480    14.5120 ca         1 U6X       0.218100
      9 C13         16.1670     3.4750    15.8930 ca         1 U6X      -0.325500
     10 C15         19.3100     7.0130    13.9150 c3         1 U6X       0.144900
     11 O3          16.4530     1.1700    17.2090 o          1 U6X      -0.543000
     12 S1          15.4210     2.1000    16.7590 sy         1 U6X       1.135600
     13 O2          14.1990     1.6690    16.0800 o          1 U6X      -0.543000
     14 C12         17.5440     3.7150    16.0000 ca         1 U6X       0.039000
     15 C11         18.1140     4.7950    15.3140 ca         1 U6X      -0.231000
     16 O4          17.9040     6.7100    13.8430 os         1 U6X      -0.334100
     17 C14         15.3660     4.3140    15.0980 ca         1 U6X       0.073000
     18 C9          15.9250     5.4090    14.3980 ca         1 U6X      -0.213600
     19 O1          13.7780     6.0090    13.5140 o          1 U6X      -0.584100
     20 N2          15.4930     7.3180    12.8710 ns         1 U6X      -0.492900
     21 C3          15.9470    10.9070     9.6490 c5         1 U6X       0.181800
     22 C2          13.7280     9.7300     9.4610 c3         1 U6X       0.184800
     23 C1          14.0850     8.7120     8.3560 c3         1 U6X      -0.129100
     24 H2          15.2840     2.1810    18.8350 hn         1 U6X       0.472000
     25 H3          15.5280     3.6290    18.1940 hn         1 U6X       0.472000
     26 H4          18.0100    10.9780    10.4130 hc         1 U6X       0.046700
     27 H5          16.9190    12.0960    11.2290 hc         1 U6X       0.046700
     28 H6          17.4900     9.4290    12.1680 hc         1 U6X       0.046700
     29 H7          16.1680    10.4530    12.7280 hc         1 U6X       0.046700
     30 H8          16.1140     8.4310    10.3990 h1         1 U6X       0.050700
     31 H9          14.1210     8.8860    12.6760 h1         1 U6X       0.064700
     32 H10         14.0210     7.6400    11.4150 h1         1 U6X       0.064700
     33 H11         19.5390     7.8960    13.3060 h1         1 U6X       0.049367
     34 H12         19.6110     7.2270    14.9490 h1         1 U6X       0.049367
     35 H13         19.9100     6.1750    13.5370 h1         1 U6X       0.049367
     36 H14         18.1790     3.0720    16.6100 ha         1 U6X       0.140000
     37 H15         19.1820     4.9500    15.4210 ha         1 U6X       0.126000
     38 H16         14.2980     4.1120    15.0280 ha         1 U6X       0.148000
     39 H17         16.4900     7.4690    12.9650 hn         1 U6X       0.313500
     40 H18         16.3870    10.3250     8.8260 h1         1 U6X       0.043700
     41 H19         15.6050    11.8670     9.2390 h1         1 U6X       0.043700
     42 H20         13.2870    10.6140     8.9800 h1         1 U6X       0.050700
     43 H21         12.9370     9.2930    10.0850 h1         1 U6X       0.050700
     44 H22         13.1870     8.4540     7.7840 hc         1 U6X       0.036033
     45 H23         14.8210     9.1260     7.6570 hc         1 U6X       0.036033
     46 H24         14.4880     7.7870     8.7840 hc         1 U6X       0.036033
@<TRIPOS>BOND
     1     1     5 1   
     2     1    21 1   
     3     1    22 1   
     4     2    12 1   
     5     2    24 1   
     6     2    25 1   
     7     3     4 1   
     8     3    21 1   
     9     3    26 1   
    10     3    27 1   
    11     4     5 1   
    12     4    28 1   
    13     4    29 1   
    14     5     6 1   
    15     5    30 1   
    16     6    20 1   
    17     6    31 1   
    18     6    32 1   
    19     7    18 1   
    20     7    19 2   
    21     7    20 1   
    22     8    15 ar  
    23     8    16 1   
    24     8    18 ar  
    25     9    12 1   
    26     9    14 ar  
    27     9    17 ar  
    28    10    16 1   
    29    10    33 1   
    30    10    34 1   
    31    10    35 1   
    32    11    12 2   
    33    12    13 2   
    34    14    15 ar  
    35    14    36 1   
    36    15    37 1   
    37    17    18 ar  
    38    17    38 1   
    39    20    39 1   
    40    21    40 1   
    41    21    41 1   
    42    22    23 1   
    43    22    42 1   
    44    22    43 1   
    45    23    44 1   
    46    23    45 1   
    47    23    46 1   
@<TRIPOS>SUBSTRUCTURE
     1 U6X         1 TEMP              0 ****  ****    0 ROOT
