@<TRIPOS>MOLECULE
U6X
   46    47     1     0     0
SMALL
abcg2


@<TRIPOS>ATOM
      1 N1          14.6120     9.8560    10.5860 n3         1 U6X      -0.759600
      2 N3          14.7780     3.7120    18.0300 n8         1 U6X      -1.004100
      3 C4          16.7690    10.7910    10.9500 c5         1 U6X      -0.103400
      4 C5          16.4360     9.8380    12.0900 c5         1 U6X      -0.088400
      5 C6          15.3300     8.9690    11.4920 c5         1 U6X       0.164500
      6 C7          14.3800     8.3900    12.5400 c3         1 U6X       0.106000
      7 C8          15.1780     6.1500    13.1410 c          1 U6X       0.624700
      8 C10         17.4420     5.4970    14.0290 ca         1 U6X       0.218100
      9 C13         16.2750     3.7690    15.8550 ca         1 U6X      -0.325500
     10 C15         19.3110     6.4880    12.9530 c3         1 U6X       0.144900
     11 O3          16.5790     1.8900    17.6350 o          1 U6X      -0.543000
     12 S1          15.5190     2.6560    16.9940 sy         1 U6X       1.135600
     13 O2          14.4410     1.9380    16.3300 o          1 U6X      -0.543000
     14 C12         17.6530     3.8760    15.7950 ca         1 U6X       0.039000
     15 C11         18.2400     4.7350    14.8800 ca         1 U6X      -0.231000
     16 O4          17.9100     6.3430    13.1100 os         1 U6X      -0.334100
     17 C14         15.4680     4.5130    15.0000 ca         1 U6X       0.073000
     18 C9          16.0440     5.3870    14.1020 ca         1 U6X      -0.213600
     19 O1          14.6290     5.5840    12.2090 o          1 U6X      -0.584100
     20 N2          15.0460     7.4530    13.4190 ns         1 U6X      -0.492900
     21 C3          15.3930    11.0720    10.3560 c5         1 U6X       0.181800
     22 C2          14.0450     9.2270     9.4100 c3         1 U6X       0.184800
     23 C1          15.0470     8.7230     8.3710 c3         1 U6X      -0.129100
     24 H2          14.0540     3.2500    18.5750 hn         1 U6X       0.472000
     25 H3          15.4330     4.1830    18.6460 hn         1 U6X       0.472000
     26 H4          17.4050    10.2920    10.2140 hc         1 U6X       0.046700
     27 H5          17.2860    11.6940    11.2760 hc         1 U6X       0.046700
     28 H6          17.2890     9.2520    12.4330 hc         1 U6X       0.046700
     29 H7          16.0540    10.3980    12.9500 hc         1 U6X       0.046700
     30 H8          15.7940     8.1290    10.9530 h1         1 U6X       0.050700
     31 H9          13.9690     9.1980    13.1460 h1         1 U6X       0.064700
     32 H10         13.5420     7.8840    12.0600 h1         1 U6X       0.064700
     33 H11         19.4540     7.2130    12.1560 h1         1 U6X       0.049367
     34 H12         19.7830     6.8630    13.8640 h1         1 U6X       0.049367
     35 H13         19.7830     5.5450    12.6650 h1         1 U6X       0.049367
     36 H14         18.2850     3.2930    16.4510 ha         1 U6X       0.140000
     37 H15         19.3190     4.7960    14.8420 ha         1 U6X       0.126000
     38 H16         14.3890     4.4230    15.0400 ha         1 U6X       0.148000
     39 H17         15.5640     7.8300    14.1970 hn         1 U6X       0.313500
     40 H18         15.4470    11.3220     9.2940 h1         1 U6X       0.043700
     41 H19         14.9280    11.9290    10.8570 h1         1 U6X       0.043700
     42 H20         13.3620     9.9380     8.9360 h1         1 U6X       0.050700
     43 H21         13.4190     8.3920     9.7380 h1         1 U6X       0.050700
     44 H22         14.5210     8.2780     7.5260 hc         1 U6X       0.036033
     45 H23         15.6670     9.5320     7.9830 hc         1 U6X       0.036033
     46 H24         15.7090     7.9620     8.7830 hc         1 U6X       0.036033
@<TRIPOS>BOND
     1     1     5 1   
     2     1    21 1   
     3     1    22 1   
     4     2    12 1   
     5     2    24 1   
     6     2    25 1   
     7     3     4 1   
     8     3    21 1   
     9     3    26 1   
    10     3    27 1   
    11     4     5 1   
    12     4    28 1   
    13     4    29 1   
    14     5     6 1   
    15     5    30 1   
    16     6    20 1   
    17     6    31 1   
    18     6    32 1   
    19     7    18 1   
    20     7    19 2   
    21     7    20 1   
    22     8    15 ar  
    23     8    16 1   
    24     8    18 ar  
    25     9    12 1   
    26     9    14 ar  
    27     9    17 ar  
    28    10    16 1   
    29    10    33 1   
    30    10    34 1   
    31    10    35 1   
    32    11    12 2   
    33    12    13 2   
    34    14    15 ar  
    35    14    36 1   
    36    15    37 1   
    37    17    18 ar  
    38    17    38 1   
    39    20    39 1   
    40    21    40 1   
    41    21    41 1   
    42    22    23 1   
    43    22    42 1   
    44    22    43 1   
    45    23    44 1   
    46    23    45 1   
    47    23    46 1   
@<TRIPOS>SUBSTRUCTURE
     1 U6X         1 TEMP              0 ****  ****    0 ROOT
