@<TRIPOS>MOLECULE
U6Y
   82    85     1     0     0
SMALL
abcg2


@<TRIPOS>ATOM
      1 C1         -19.7790    -1.1910    19.8490 c3         1 U6Y      -0.092100
      2 C2         -18.9250    -0.6350    18.7080 c3         1 U6Y      -0.060700
      3 C3         -19.4000    -1.2210    17.3740 c3         1 U6Y      -0.079400
      4 C4         -18.7110    -0.6330    16.1470 c3         1 U6Y       0.043700
      5 N1         -18.8810     0.8120    16.0460 n          1 U6Y      -0.427800
      6 C5         -17.8390     1.6810    16.0410 c          1 U6Y       0.563000
      7 C6         -18.4020     3.0880    16.0330 c5         1 U6Y      -0.181400
      8 C7         -19.8660     2.9000    15.6190 c5         1 U6Y       0.108700
      9 N2         -20.7770     3.8770    16.1640 ns         1 U6Y      -0.498900
     10 C8         -21.5160     4.7070    15.3980 c          1 U6Y       0.645100
     11 O1         -22.2690     5.5200    16.1760 os         1 U6Y      -0.464100
     12 C9         -23.0130     6.5600    15.4940 c3         1 U6Y       0.232900
     13 C10        -22.1360     7.7220    15.1150 ca         1 U6Y      -0.135300
     14 C11        -21.9590     8.0740    13.7790 ca         1 U6Y      -0.081000
     15 C12        -21.1490     9.1520    13.4330 ca         1 U6Y      -0.115500
     16 C13        -20.5010     9.8820    14.4240 ca         1 U6Y      -0.095000
     17 C14        -20.6720     9.5350    15.7620 ca         1 U6Y      -0.115500
     18 C15        -21.4880     8.4640    16.1050 ca         1 U6Y      -0.081000
     19 O2         -21.5250     4.7300    14.1780 o          1 U6Y      -0.542000
     20 C16        -20.1890     1.4610    16.0620 c5         1 U6Y       0.080000
     21 O3         -16.6520     1.3720    16.0550 o          1 U6Y      -0.547000
     22 C17        -19.2240    -1.2530    14.8390 c          1 U6Y       0.581100
     23 N3         -18.3100    -1.2630    13.8400 ns         1 U6Y      -0.513900
     24 C18        -18.6440    -1.5090    12.4440 c3         1 U6Y       0.071700
     25 C19        -17.8350    -2.7250    11.9390 c3         1 U6Y       0.076300
     26 O4         -18.0510    -3.8520    12.7770 oh         1 U6Y      -0.664000
     27 C20        -18.2600    -3.0870    10.5180 c          1 U6Y       0.605100
     28 N4         -19.3230    -3.9030    10.4410 ns         1 U6Y      -0.470900
     29 C21        -19.9180    -4.2990     9.1980 cx         1 U6Y       0.050700
     30 C22        -21.3940    -4.5460     9.1880 cx         1 U6Y      -0.135900
     31 C23        -20.8300    -3.3330     8.4940 cx         1 U6Y      -0.135900
     32 O5         -17.6850    -2.6090     9.5420 o          1 U6Y      -0.595100
     33 C24        -18.4200    -0.2490    11.6060 c3         1 U6Y      -0.077400
     34 C25        -19.2670     0.9240    12.0780 c5         1 U6Y      -0.152700
     35 C26        -20.7870     0.7480    11.9450 c5         1 U6Y      -0.096400
     36 C27        -21.3140     2.1700    11.7010 c5         1 U6Y       0.097000
     37 N5         -20.1600     2.8350    11.1030 ns         1 U6Y      -0.507900
     38 C28        -18.9850     2.2120    11.3070 c          1 U6Y       0.556000
     39 O6         -17.8790     2.6210    10.9590 o          1 U6Y      -0.558000
     40 O7         -20.3740    -1.6550    14.7100 o          1 U6Y      -0.596100
     41 C29        -17.4400    -0.8980    18.9670 c3         1 U6Y      -0.092100
     42 H1         -19.4840    -0.7560    20.8060 hc         1 U6Y       0.037200
     43 H2         -20.8380    -0.9750    19.6900 hc         1 U6Y       0.037200
     44 H3         -19.6650    -2.2760    19.9230 hc         1 U6Y       0.037200
     45 H4         -19.0750     0.4490    18.6760 hc         1 U6Y       0.042700
     46 H5         -20.4780    -1.0860    17.2770 hc         1 U6Y       0.060700
     47 H6         -19.2210    -2.3010    17.3680 hc         1 U6Y       0.060700
     48 H7         -17.6360    -0.7950    16.2070 h1         1 U6Y       0.090700
     49 H8         -18.3290     3.4860    17.0500 hc         1 U6Y       0.090200
     50 H9         -17.8360     3.7380    15.3690 hc         1 U6Y       0.090200
     51 H10        -19.9470     2.9670    14.5370 h1         1 U6Y       0.096700
     52 H11        -20.8360     3.9810    17.1660 hn         1 U6Y       0.328500
     53 H12        -23.7640     6.8570    16.2230 h1         1 U6Y       0.069200
     54 H13        -23.5050     6.1390    14.6200 h1         1 U6Y       0.069200
     55 H14        -22.4530     7.4970    13.0070 ha         1 U6Y       0.117000
     56 H15        -21.0190     9.4160    12.3910 ha         1 U6Y       0.115500
     57 H16        -19.8670    10.7180    14.1560 ha         1 U6Y       0.115000
     58 H17        -20.1740    10.1030    16.5380 ha         1 U6Y       0.115500
     59 H18        -21.6240     8.1990    17.1460 ha         1 U6Y       0.117000
     60 H19        -20.8810     0.9650    15.3830 h1         1 U6Y       0.063700
     61 H20        -20.6180     1.4510    17.0680 h1         1 U6Y       0.063700
     62 H21        -17.4050    -0.8540    14.0300 hn         1 U6Y       0.325500
     63 H22        -19.6970    -1.7890    12.4300 h1         1 U6Y       0.088700
     64 H23        -16.7720    -2.4650    11.9030 h1         1 U6Y       0.072700
     65 H24        -17.9420    -3.5640    13.6950 ho         1 U6Y       0.461000
     66 H25        -19.6620    -4.3070    11.3010 hn         1 U6Y       0.338500
     67 H26        -19.2940    -4.9340     8.5810 h1         1 U6Y       0.092700
     68 H27        -21.9260    -4.3880    10.1180 hc         1 U6Y       0.077700
     69 H28        -21.7600    -5.3660     8.5860 hc         1 U6Y       0.077700
     70 H29        -20.9790    -2.3720     8.9670 hc         1 U6Y       0.077700
     71 H30        -20.8080    -3.3190     7.4120 hc         1 U6Y       0.077700
     72 H31        -18.6560    -0.4700    10.5640 hc         1 U6Y       0.077700
     73 H32        -17.3630     0.0260    11.6430 hc         1 U6Y       0.077700
     74 H33        -19.0090     1.1550    13.1160 hc         1 U6Y       0.065700
     75 H34        -21.2400     0.2890    12.8210 hc         1 U6Y       0.061200
     76 H35        -21.0030     0.1180    11.0790 hc         1 U6Y       0.061200
     77 H36        -21.5970     2.6660    12.6330 h1         1 U6Y       0.054700
     78 H37        -22.1660     2.1920    11.0230 h1         1 U6Y       0.054700
     79 H38        -20.2010     3.7680    10.7220 hn         1 U6Y       0.332500
     80 H39        -17.1440    -0.4980    19.9390 hc         1 U6Y       0.037200
     81 H40        -17.2350    -1.9730    18.9690 hc         1 U6Y       0.037200
     82 H41        -16.8040    -0.4340    18.2110 hc         1 U6Y       0.037200
@<TRIPOS>BOND
     1     1     2 1   
     2     1    42 1   
     3     1    43 1   
     4     1    44 1   
     5     2     3 1   
     6     2    41 1   
     7     2    45 1   
     8     3     4 1   
     9     3    46 1   
    10     3    47 1   
    11     4     5 1   
    12     4    22 1   
    13     4    48 1   
    14     5     6 1   
    15     5    20 1   
    16     6     7 1   
    17     6    21 2   
    18     7     8 1   
    19     7    49 1   
    20     7    50 1   
    21     8     9 1   
    22     8    20 1   
    23     8    51 1   
    24     9    10 1   
    25     9    52 1   
    26    10    11 1   
    27    10    19 2   
    28    11    12 1   
    29    12    13 1   
    30    12    53 1   
    31    12    54 1   
    32    13    14 ar  
    33    13    18 ar  
    34    14    15 ar  
    35    14    55 1   
    36    15    16 ar  
    37    15    56 1   
    38    16    17 ar  
    39    16    57 1   
    40    17    18 ar  
    41    17    58 1   
    42    18    59 1   
    43    20    60 1   
    44    20    61 1   
    45    22    23 1   
    46    22    40 2   
    47    23    24 1   
    48    23    62 1   
    49    24    25 1   
    50    24    33 1   
    51    24    63 1   
    52    25    26 1   
    53    25    27 1   
    54    25    64 1   
    55    26    65 1   
    56    27    28 1   
    57    27    32 2   
    58    28    29 1   
    59    28    66 1   
    60    29    30 1   
    61    29    31 1   
    62    29    67 1   
    63    30    31 1   
    64    30    68 1   
    65    30    69 1   
    66    31    70 1   
    67    31    71 1   
    68    33    34 1   
    69    33    72 1   
    70    33    73 1   
    71    34    35 1   
    72    34    38 1   
    73    34    74 1   
    74    35    36 1   
    75    35    75 1   
    76    35    76 1   
    77    36    37 1   
    78    36    77 1   
    79    36    78 1   
    80    37    38 1   
    81    37    79 1   
    82    38    39 2   
    83    41    80 1   
    84    41    81 1   
    85    41    82 1   
@<TRIPOS>SUBSTRUCTURE
     1 U6Y         1 TEMP              0 ****  ****    0 ROOT
