@<TRIPOS>MOLECULE
U6Y
   82    85     1     0     0
SMALL
No Charge or Current Charge


@<TRIPOS>ATOM
      1 C1         -21.6690    -1.8480    18.5360 c3         1 U6Y      -0.092100
      2 C2         -20.3440    -1.5080    17.8190 c3         1 U6Y      -0.060700
      3 C3         -20.5390    -1.4820    16.2740 c3         1 U6Y      -0.079400
      4 C4         -19.2810    -1.0890    15.4460 c3         1 U6Y       0.043700
      5 N1         -18.7350     0.2500    15.8420 n          1 U6Y      -0.427800
      6 C5         -17.3780     0.5420    15.6570 c          1 U6Y       0.563000
      7 C6         -17.2340     1.9930    16.1010 c5         1 U6Y      -0.181400
      8 C7         -18.5770     2.5800    15.6060 c5         1 U6Y       0.108700
      9 N2         -18.8590     3.7580    16.4320 ns         1 U6Y      -0.498900
     10 C8         -19.9800     4.4910    16.1340 c          1 U6Y       0.645100
     11 O1         -20.0500     5.5520    16.9850 os         1 U6Y      -0.464100
     12 C9         -21.1170     6.5030    16.7980 c3         1 U6Y       0.232900
     13 C10        -20.8220     7.3600    15.5680 ca         1 U6Y      -0.135300
     14 C11        -21.5390     7.1650    14.3690 ca         1 U6Y      -0.081000
     15 C12        -21.2560     7.9510    13.2380 ca         1 U6Y      -0.115500
     16 C13        -20.2600     8.9410    13.2980 ca         1 U6Y      -0.095000
     17 C14        -19.5460     9.1420    14.4920 ca         1 U6Y      -0.115500
     18 C15        -19.8250     8.3540    15.6220 ca         1 U6Y      -0.081000
     19 O2         -20.7840     4.2220    15.2560 o          1 U6Y      -0.542000
     20 C16        -19.5700     1.4560    16.0570 c5         1 U6Y       0.080000
     21 O3         -16.6060    -0.1560    15.0180 o          1 U6Y      -0.547000
     22 C17        -19.5620    -1.2320    13.9190 c          1 U6Y       0.581100
     23 N3         -19.2910    -0.1140    13.1540 ns         1 U6Y      -0.513900
     24 C18        -19.5120     0.0180    11.7040 c3         1 U6Y       0.071700
     25 C19        -18.4280    -0.7270    10.8570 c3         1 U6Y       0.076300
     26 O4         -17.1440    -0.6880    11.5470 oh         1 U6Y      -0.664000
     27 C20        -18.8820    -2.1740    10.4700 c          1 U6Y       0.605100
     28 N4         -18.0480    -3.1940    10.8830 ns         1 U6Y      -0.470900
     29 C21        -18.2820    -4.5950    10.6440 cx         1 U6Y       0.050700
     30 C22        -17.7600    -5.5830    11.6600 cx         1 U6Y      -0.135900
     31 C23        -19.2420    -5.3120    11.5630 cx         1 U6Y      -0.135900
     32 O5         -19.8960    -2.3940     9.8150 o          1 U6Y      -0.595100
     33 C24        -19.6200     1.5180    11.3220 c3         1 U6Y      -0.077400
     34 C25        -20.7150     2.3270    12.0770 c5         1 U6Y      -0.152700
     35 C26        -22.1680     1.7990    11.9090 c5         1 U6Y      -0.096400
     36 C27        -22.9940     3.0570    12.2950 c5         1 U6Y       0.097000
     37 N5         -22.1600     4.1070    11.7150 ns         1 U6Y      -0.507900
     38 C28        -20.8330     3.7890    11.6170 c          1 U6Y       0.556000
     39 O6         -20.0220     4.4880    11.0300 o          1 U6Y      -0.558000
     40 O7         -20.0020    -2.2550    13.4180 o          1 U6Y      -0.596100
     41 C29        -19.2150    -2.4660    18.2690 c3         1 U6Y      -0.092100
     42 H1         -21.5470    -1.7880    19.6240 hc         1 U6Y       0.037200
     43 H2         -22.4590    -1.1440    18.2470 hc         1 U6Y       0.037200
     44 H3         -22.0020    -2.8620    18.2830 hc         1 U6Y       0.037200
     45 H4         -20.0590    -0.5010    18.1460 hc         1 U6Y       0.042700
     46 H5         -21.3580    -0.7940    16.0260 hc         1 U6Y       0.060700
     47 H6         -20.8720    -2.4770    15.9540 hc         1 U6Y       0.060700
     48 H7         -18.5020    -1.8350    15.6490 h1         1 U6Y       0.090700
     49 H8         -17.2180     2.0040    17.1970 hc         1 U6Y       0.090200
     50 H9         -16.3340     2.4610    15.6910 hc         1 U6Y       0.090200
     51 H10        -18.5880     2.7670    14.5220 h1         1 U6Y       0.096700
     52 H11        -18.2720     4.1000    17.1830 hn         1 U6Y       0.328500
     53 H12        -21.1880     7.1620    17.6730 h1         1 U6Y       0.069200
     54 H13        -22.0870     5.9980    16.6950 h1         1 U6Y       0.069200
     55 H14        -22.3090     6.3990    14.3090 ha         1 U6Y       0.117000
     56 H15        -21.8080     7.7920    12.3140 ha         1 U6Y       0.115500
     57 H16        -20.0420     9.5490    12.4230 ha         1 U6Y       0.115000
     58 H17        -18.7750     9.9070    14.5400 ha         1 U6Y       0.115500
     59 H18        -19.2640     8.5140    16.5410 ha         1 U6Y       0.117000
     60 H19        -20.4890     1.4480    15.4560 h1         1 U6Y       0.063700
     61 H20        -19.8460     1.5500    17.1160 h1         1 U6Y       0.063700
     62 H21        -18.9810     0.7010    13.6680 hn         1 U6Y       0.325500
     63 H22        -20.4860    -0.4370    11.4740 h1         1 U6Y       0.088700
     64 H23        -18.3300    -0.2130     9.8900 h1         1 U6Y       0.072700
     65 H24        -17.3430    -0.5280    12.4980 ho         1 U6Y       0.461000
     66 H25        -17.2170    -2.8930    11.3820 hn         1 U6Y       0.338500
     67 H26        -18.2700    -4.8810     9.5890 h1         1 U6Y       0.092700
     68 H27        -17.2320    -5.1970    12.5290 hc         1 U6Y       0.077700
     69 H28        -17.3990    -6.5420    11.2960 hc         1 U6Y       0.077700
     70 H29        -19.7050    -4.7410    12.3640 hc         1 U6Y       0.077700
     71 H30        -19.8740    -6.0840    11.1300 hc         1 U6Y       0.077700
     72 H31        -19.8100     1.5880    10.2420 hc         1 U6Y       0.077700
     73 H32        -18.6440     1.9930    11.4860 hc         1 U6Y       0.077700
     74 H33        -20.4930     2.3490    13.1490 hc         1 U6Y       0.065700
     75 H34        -22.3900     0.9350    12.5460 hc         1 U6Y       0.061200
     76 H35        -22.3700     1.5070    10.8710 hc         1 U6Y       0.061200
     77 H36        -23.0750     3.1680    13.3860 h1         1 U6Y       0.054700
     78 H37        -24.0080     3.0320    11.8710 h1         1 U6Y       0.054700
     79 H38        -22.4800     5.0020    11.3640 hn         1 U6Y       0.332500
     80 H39        -19.1470    -2.4950    19.3630 hc         1 U6Y       0.037200
     81 H40        -19.4000    -3.4860    17.9110 hc         1 U6Y       0.037200
     82 H41        -18.2410    -2.1360    17.8900 hc         1 U6Y       0.037200
@<TRIPOS>BOND
     1     1     2 1   
     2     1    42 1   
     3     1    43 1   
     4     1    44 1   
     5     2     3 1   
     6     2    41 1   
     7     2    45 1   
     8     3     4 1   
     9     3    46 1   
    10     3    47 1   
    11     4     5 1   
    12     4    22 1   
    13     4    48 1   
    14     5     6 1   
    15     5    20 1   
    16     6     7 1   
    17     6    21 2   
    18     7     8 1   
    19     7    49 1   
    20     7    50 1   
    21     8     9 1   
    22     8    20 1   
    23     8    51 1   
    24     9    10 1   
    25     9    52 1   
    26    10    11 1   
    27    10    19 2   
    28    11    12 1   
    29    12    13 1   
    30    12    53 1   
    31    12    54 1   
    32    13    14 ar  
    33    13    18 ar  
    34    14    15 ar  
    35    14    55 1   
    36    15    16 ar  
    37    15    56 1   
    38    16    17 ar  
    39    16    57 1   
    40    17    18 ar  
    41    17    58 1   
    42    18    59 1   
    43    20    60 1   
    44    20    61 1   
    45    22    23 1   
    46    22    40 2   
    47    23    24 1   
    48    23    62 1   
    49    24    25 1   
    50    24    33 1   
    51    24    63 1   
    52    25    26 1   
    53    25    27 1   
    54    25    64 1   
    55    26    65 1   
    56    27    28 1   
    57    27    32 2   
    58    28    29 1   
    59    28    66 1   
    60    29    30 1   
    61    29    31 1   
    62    29    67 1   
    63    30    31 1   
    64    30    68 1   
    65    30    69 1   
    66    31    70 1   
    67    31    71 1   
    68    33    34 1   
    69    33    72 1   
    70    33    73 1   
    71    34    35 1   
    72    34    38 1   
    73    34    74 1   
    74    35    36 1   
    75    35    75 1   
    76    35    76 1   
    77    36    37 1   
    78    36    77 1   
    79    36    78 1   
    80    37    38 1   
    81    37    79 1   
    82    38    39 2   
    83    41    80 1   
    84    41    81 1   
    85    41    82 1   
@<TRIPOS>SUBSTRUCTURE
     1 U6Y         1 TEMP              0 ****  ****    0 ROOT
