@<TRIPOS>MOLECULE
U6Z
   23    24     1     0     0
SMALL
No Charge or Current Charge


@<TRIPOS>ATOM
      1 O5          -3.0860   -22.0640   -14.4770 o          1 U6Z      -0.468000
      2 C8          -3.1330   -21.0670   -15.1790 c          1 U6Z       0.641000
      3 N4          -3.5150   -19.8270   -14.8020 ns         1 U6Z      -0.483500
      4 C1          -3.4930   -18.8310   -15.7320 c          1 U6Z       0.573000
      5 O1          -3.8060   -17.6670   -15.5430 o          1 U6Z      -0.481000
      6 C2          -2.9940   -19.5550   -17.0060 c5         1 U6Z      -0.031000
      7 N1          -2.8110   -20.9440   -16.5360 n          1 U6Z      -0.190800
      8 N2          -2.3220   -21.9500   -17.3350 n2         1 U6Z      -0.344300
      9 C3          -3.1400   -22.7420   -17.9560 ce         1 U6Z       0.248200
     10 C4          -2.6750   -23.8320   -18.8150 cc         1 U6Z       0.158700
     11 O4          -1.3260   -24.0610   -19.0010 os         1 U6Z      -0.156000
     12 C7          -1.2020   -25.1450   -19.8530 cc         1 U6Z       0.018500
     13 N3           0.1090   -25.6260   -20.2380 no         1 U6Z       0.620500
     14 O3           1.1040   -25.0420   -19.7840 o          1 U6Z      -0.373500
     15 O2           0.1630   -26.5990   -21.0020 o          1 U6Z      -0.373500
     16 C6          -2.4560   -25.5860   -20.1940 cd         1 U6Z      -0.065000
     17 C5          -3.3850   -24.7550   -19.5360 cd         1 U6Z      -0.187000
     18 H1          -3.8030   -19.6450   -13.8530 hn         1 U6Z       0.366500
     19 H2          -2.0520   -19.1010   -17.3370 h1         1 U6Z       0.090700
     20 H3          -3.7560   -19.4780   -17.7910 h1         1 U6Z       0.090700
     21 H4          -4.2240   -22.6390   -17.8710 h4         1 U6Z       0.015800
     22 H5          -2.6830   -26.4220   -20.8500 ha         1 U6Z       0.174000
     23 H6          -4.4670   -24.8270   -19.5880 ha         1 U6Z       0.156000
@<TRIPOS>BOND
     1     1     2 2   
     2     2     3 1   
     3     2     7 1   
     4     3     4 1   
     5     3    18 1   
     6     4     5 2   
     7     4     6 1   
     8     6     7 1   
     9     6    19 1   
    10     6    20 1   
    11     7     8 1   
    12     8     9 2   
    13     9    10 1   
    14     9    21 1   
    15    10    11 1   
    16    10    17 2   
    17    11    12 1   
    18    12    13 1   
    19    12    16 2   
    20    13    14 1   
    21    13    15 1   
    22    16    17 1   
    23    16    22 1   
    24    17    23 1   
@<TRIPOS>SUBSTRUCTURE
     1 U6Z         1 TEMP              0 ****  ****    0 ROOT
