@<TRIPOS>MOLECULE
U6Z
   23    24     1     0     0
SMALL
bcc


@<TRIPOS>ATOM
      1 O5          -1.1600   -21.3080   -14.8770 o          1 U6Z      -0.543500
      2 C8          -2.1090   -20.7470   -15.3530 c          1 U6Z       0.850500
      3 N4          -2.7320   -19.6100   -14.8690 ns         1 U6Z      -0.617500
      4 C1          -3.7860   -19.1950   -15.6310 c          1 U6Z       0.715500
      5 O1          -4.4780   -18.2310   -15.4390 o          1 U6Z      -0.556500
      6 C2          -3.9050   -20.1920   -16.7630 c5         1 U6Z      -0.031000
      7 N1          -2.8090   -21.0950   -16.4890 n          1 U6Z      -0.257800
      8 N2          -2.4200   -22.1410   -17.2030 n2         1 U6Z      -0.344300
      9 C3          -3.0740   -22.4630   -18.2500 ce         1 U6Z       0.248200
     10 C4          -2.6400   -23.5860   -19.0400 cc         1 U6Z       0.268400
     11 O4          -1.5250   -24.2480   -18.6890 os         1 U6Z      -0.244800
     12 C7          -1.3630   -25.2180   -19.5930 cc         1 U6Z       0.128200
     13 N3          -0.2400   -26.0620   -19.4430 no         1 U6Z       0.240500
     14 O3           0.4930   -25.8730   -18.5000 o          1 U6Z      -0.183500
     15 O2          -0.0970   -26.9250   -20.2820 o          1 U6Z      -0.183500
     16 C6          -2.3450   -25.2110   -20.5330 cd         1 U6Z      -0.148300
     17 C5          -3.1850   -24.1380   -20.1670 cd         1 U6Z      -0.270300
     18 H1          -2.4100   -19.1320   -14.0370 hn         1 U6Z       0.366500
     19 H2          -3.7990   -19.6960   -17.7310 h1         1 U6Z       0.090700
     20 H3          -4.8750   -20.6970   -16.7310 h1         1 U6Z       0.090700
     21 H4          -3.9590   -21.9500   -18.6170 h4         1 U6Z       0.015800
     22 H5          -2.4540   -25.8800   -21.3700 ha         1 U6Z       0.192000
     23 H6          -4.0800   -23.8080   -20.6700 ha         1 U6Z       0.174000
@<TRIPOS>BOND
     1     1     2 2   
     2     2     3 1   
     3     2     7 1   
     4     3     4 1   
     5     3    18 1   
     6     4     5 2   
     7     4     6 1   
     8     6     7 1   
     9     6    19 1   
    10     6    20 1   
    11     7     8 1   
    12     8     9 2   
    13     9    10 1   
    14     9    21 1   
    15    10    11 1   
    16    10    17 2   
    17    11    12 1   
    18    12    13 1   
    19    12    16 2   
    20    13    14 1   
    21    13    15 1   
    22    16    17 1   
    23    16    22 1   
    24    17    23 1   
@<TRIPOS>SUBSTRUCTURE
     1 U6Z         1 TEMP              0 ****  ****    0 ROOT
