@<TRIPOS>MOLECULE
U70
   53    58     1     0     0
SMALL
No Charge or Current Charge


@<TRIPOS>ATOM
      1 C2          24.6230   -23.9090    31.2840 ca         1 U70       0.118000
      2 C3          25.6250   -24.3020    30.3830 ca         1 U70      -0.084000
      3 C4          25.3680   -24.2970    29.0050 ca         1 U70      -0.102000
      4 C5          24.1100   -23.8980    28.5270 ca         1 U70      -0.062000
      5 C6          23.0890   -23.4940    29.4150 ca         1 U70      -0.024800
      6 C7          23.3550   -23.5030    30.8100 ca         1 U70       0.129000
      7 N10         21.0370   -21.9870    29.2830 na         1 U70       0.010500
      8 C15         19.2990   -24.2590    25.8750 ca         1 U70       0.602900
      9 C16         20.4870   -25.0460    26.0840 ca         1 U70       0.250900
     10 C18         21.0800   -23.6540    27.7710 ca         1 U70       0.069000
     11 C21         15.9040   -24.6230    24.0390 cx         1 U70      -0.127700
     12 C23         17.7540   -26.2520    23.1470 c6         1 U70      -0.068400
     13 C24         18.7170   -25.1180    23.5640 c6         1 U70       0.229800
     14 C30         11.7480   -26.0000    24.4430 cc         1 U70       0.301300
     15 C31         10.5520   -25.3700    25.0910 c3         1 U70      -0.119400
     16 C32         11.7120   -26.9620    23.4650 cd         1 U70      -0.260000
     17 Cl1         24.9840   -23.9400    33.0120 cl         1 U70      -0.174000
     18 Cl8         22.1040   -23.0610    31.9840 cl         1 U70      -0.177000
     19 C9          21.7940   -23.0710    28.8590 cc         1 U70       0.013700
     20 N11         19.8660   -21.8280    28.5290 nc         1 U70      -0.255400
     21 C13         19.9280   -22.8800    27.6070 ca         1 U70       0.251000
     22 N14         19.0190   -23.1740    26.6500 nb         1 U70      -0.724000
     23 N17         21.4060   -24.7500    27.0480 nb         1 U70      -0.563000
     24 N19         18.3260   -24.5520    24.8830 nh         1 U70      -0.796300
     25 C20         16.9750   -23.9120    24.8970 c6         1 U70       0.252800
     26 C22         16.2800   -25.8030    23.1620 cx         1 U70      -0.083700
     27 C25         15.3750   -26.0100    24.3750 cx         1 U70      -0.130300
     28 C26         15.8490   -26.7480    25.6350 c3         1 U70       0.191800
     29 N27         15.7360   -28.2170    25.5060 n8         1 U70      -1.005200
     30 C28         13.9220   -26.2660    24.1630 cd         1 U70       0.496700
     31 N29         12.9960   -25.5980    24.8410 nc         1 U70      -0.662000
     32 S33         13.3310   -27.4260    22.9750 ss         1 U70      -0.074400
     33 H1          26.5990   -24.6120    30.7550 ha         1 U70       0.136000
     34 H2          26.1440   -24.6010    28.3050 ha         1 U70       0.129000
     35 H3          23.9340   -23.8880    27.4530 ha         1 U70       0.142000
     36 H4          21.2630   -21.3510    30.0410 hn         1 U70       0.384000
     37 H5          20.6940   -25.9280    25.4810 h4         1 U70       0.028100
     38 H6          15.1780   -23.9200    23.6370 hc         1 U70       0.089700
     39 H7          17.8950   -27.1210    23.8030 hc         1 U70       0.066200
     40 H8          18.0160   -26.5930    22.1370 hc         1 U70       0.066200
     41 H9          19.7430   -25.5100    23.5750 h1         1 U70       0.051700
     42 H10         18.6920   -24.3260    22.8010 h1         1 U70       0.051700
     43 H11         10.5430   -24.2870    24.9220 hc         1 U70       0.050367
     44 H12          9.6210   -25.7820    24.6840 hc         1 U70       0.050367
     45 H13         10.5550   -25.5480    26.1720 hc         1 U70       0.050367
     46 H14         10.8400   -27.4160    23.0100 h4         1 U70       0.160000
     47 H15         17.0590   -22.8770    24.5330 h1         1 U70       0.072200
     48 H16         16.5820   -23.8580    25.9230 h1         1 U70       0.072200
     49 H17         15.8170   -25.8410    22.1780 hc         1 U70       0.081700
     50 H18         16.8970   -26.5080    25.8520 h1         1 U70       0.046700
     51 H19         15.2520   -26.4200    26.4990 h1         1 U70       0.046700
     52 H20         16.0550   -28.6530    26.3790 hn         1 U70       0.400500
     53 H21         14.7460   -28.4790    25.4540 hn         1 U70       0.400500
@<TRIPOS>BOND
     1     1     2 ar  
     2     1     6 ar  
     3     1    17 1   
     4     2     3 ar  
     5     2    33 1   
     6     3     4 ar  
     7     3    34 1   
     8     4     5 ar  
     9     4    35 1   
    10     5     6 ar  
    11     5    19 1   
    12     6    18 1   
    13     7    19 1   
    14     7    20 1   
    15     7    36 1   
    16     8     9 ar  
    17     8    22 ar  
    18     8    24 1   
    19     9    23 ar  
    20     9    37 1   
    21    10    19 2   
    22    10    21 ar  
    23    10    23 ar  
    24    11    25 1   
    25    11    26 1   
    26    11    27 1   
    27    11    38 1   
    28    12    13 1   
    29    12    26 1   
    30    12    39 1   
    31    12    40 1   
    32    13    24 1   
    33    13    41 1   
    34    13    42 1   
    35    14    15 1   
    36    14    16 2   
    37    14    31 1   
    38    15    43 1   
    39    15    44 1   
    40    15    45 1   
    41    16    32 1   
    42    16    46 1   
    43    20    21 2   
    44    21    22 ar  
    45    24    25 1   
    46    25    47 1   
    47    25    48 1   
    48    26    27 1   
    49    26    49 1   
    50    27    28 1   
    51    27    30 1   
    52    28    29 1   
    53    28    50 1   
    54    28    51 1   
    55    29    52 1   
    56    29    53 1   
    57    30    31 2   
    58    30    32 1   
@<TRIPOS>SUBSTRUCTURE
     1 U70         1 TEMP              0 ****  ****    0 ROOT
