@<TRIPOS>MOLECULE
U70
   53    58     1     0     0
SMALL
abcg2


@<TRIPOS>ATOM
      1 C2          24.0190   -24.1640    31.3870 ca         1 U70       0.118000
      2 C3          25.0960   -24.5490    30.5990 ca         1 U70      -0.084000
      3 C4          24.9800   -24.5120    29.2180 ca         1 U70      -0.102000
      4 C5          23.8030   -24.0820    28.6300 ca         1 U70      -0.062000
      5 C6          22.7070   -23.6810    29.4040 ca         1 U70      -0.024800
      6 C7          22.8250   -23.7360    30.8030 ca         1 U70       0.129000
      7 N10         20.7120   -22.2130    29.0330 na         1 U70       0.010500
      8 C15         19.2990   -24.1140    25.4020 ca         1 U70       0.602900
      9 C16         20.4350   -24.9830    25.6990 ca         1 U70       0.250900
     10 C18         20.9260   -23.7530    27.5180 ca         1 U70       0.069000
     11 C21         16.1490   -24.5250    23.5970 cx         1 U70      -0.127700
     12 C23         17.8490   -26.4560    23.2290 c6         1 U70      -0.068400
     13 C24         18.8390   -25.2960    23.2480 c6         1 U70       0.229800
     14 C30         12.0050   -26.2050    24.9390 cc         1 U70       0.301300
     15 C31         10.9640   -26.3800    25.9950 c3         1 U70      -0.119400
     16 C32         11.7910   -26.1820    23.5950 cd         1 U70      -0.260000
     17 CL1         24.1930   -24.2380    33.1160 cl         1 U70      -0.174000
     18 CL8         21.4810   -23.3140    31.8240 cl         1 U70      -0.177000
     19 C9          21.5010   -23.2550    28.6970 cc         1 U70       0.013700
     20 N11         19.6740   -21.9740    28.1960 nc         1 U70      -0.255400
     21 C13         19.8000   -22.9240    27.2590 ca         1 U70       0.251000
     22 N14         18.9870   -23.0980    26.1980 nb         1 U70      -0.724000
     23 N17         21.2230   -24.8090    26.7230 nb         1 U70      -0.563000
     24 N19         18.5130   -24.3650    24.3230 nh         1 U70      -0.796300
     25 C20         17.2610   -23.6400    24.1280 c6         1 U70       0.252800
     26 C22         16.4240   -25.9300    23.1470 cx         1 U70      -0.083700
     27 C25         15.5820   -25.7000    24.3930 cx         1 U70      -0.130300
     28 C26         16.1320   -26.0180    25.7690 c3         1 U70       0.191800
     29 N27         15.9730   -27.4440    26.0870 n8         1 U70      -1.005200
     30 C28         14.1210   -25.9120    24.2820 cd         1 U70       0.496700
     31 N29         13.3270   -26.0500    25.3070 nc         1 U70      -0.662000
     32 S33         13.2780   -25.9730    22.7500 ss         1 U70      -0.074400
     33 H1          26.0110   -24.8750    31.0740 ha         1 U70       0.136000
     34 H2          25.8170   -24.8110    28.6010 ha         1 U70       0.129000
     35 H3          23.7180   -24.0390    27.5530 ha         1 U70       0.142000
     36 H4          20.8420   -21.6020    29.8250 hn         1 U70       0.384000
     37 H5          20.6370   -25.8390    25.0720 h4         1 U70       0.028100
     38 H6          15.4140   -23.9700    23.0310 hc         1 U70       0.089700
     39 H7          17.9950   -27.0780    24.1130 hc         1 U70       0.066200
     40 H8          18.0510   -27.0810    22.3580 hc         1 U70       0.066200
     41 H9          19.8610   -25.6460    23.3380 h1         1 U70       0.051700
     42 H10         18.7750   -24.7430    22.3040 h1         1 U70       0.051700
     43 H11         10.9580   -25.5240    26.6750 hc         1 U70       0.050367
     44 H12          9.9730   -26.4780    25.5530 hc         1 U70       0.050367
     45 H13         11.1680   -27.2710    26.5940 hc         1 U70       0.050367
     46 H14         10.8580   -26.2820    23.0650 h4         1 U70       0.160000
     47 H15         17.4230   -22.8290    23.4090 h1         1 U70       0.072200
     48 H16         16.9770   -23.1820    25.0720 h1         1 U70       0.072200
     49 H17         15.8730   -26.2680    22.2790 hc         1 U70       0.081700
     50 H18         17.1930   -25.7880    25.8010 h1         1 U70       0.046700
     51 H19         15.6420   -25.3610    26.4960 h1         1 U70       0.046700
     52 H20         16.4390   -27.6440    26.9650 hn         1 U70       0.400500
     53 H21         14.9880   -27.6380    26.2360 hn         1 U70       0.400500
@<TRIPOS>BOND
     1     1     2 ar  
     2     1     6 ar  
     3     1    17 1   
     4     2     3 ar  
     5     2    33 1   
     6     3     4 ar  
     7     3    34 1   
     8     4     5 ar  
     9     4    35 1   
    10     5     6 ar  
    11     5    19 1   
    12     6    18 1   
    13     7    19 1   
    14     7    20 1   
    15     7    36 1   
    16     8     9 ar  
    17     8    22 ar  
    18     8    24 1   
    19     9    23 ar  
    20     9    37 1   
    21    10    19 2   
    22    10    21 ar  
    23    10    23 ar  
    24    11    25 1   
    25    11    26 1   
    26    11    27 1   
    27    11    38 1   
    28    12    13 1   
    29    12    26 1   
    30    12    39 1   
    31    12    40 1   
    32    13    24 1   
    33    13    41 1   
    34    13    42 1   
    35    14    15 1   
    36    14    16 2   
    37    14    31 1   
    38    15    43 1   
    39    15    44 1   
    40    15    45 1   
    41    16    32 1   
    42    16    46 1   
    43    20    21 2   
    44    21    22 ar  
    45    24    25 1   
    46    25    47 1   
    47    25    48 1   
    48    26    27 1   
    49    26    49 1   
    50    27    28 1   
    51    27    30 1   
    52    28    29 1   
    53    28    50 1   
    54    28    51 1   
    55    29    52 1   
    56    29    53 1   
    57    30    31 2   
    58    30    32 1   
@<TRIPOS>SUBSTRUCTURE
     1 U70         1 TEMP              0 ****  ****    0 ROOT
