@<TRIPOS>MOLECULE
U72
   30    32     1     0     0
SMALL
No Charge or Current Charge


@<TRIPOS>ATOM
      1 C2          -7.2120    -0.2290    -5.4380 c2         1 U72       0.829100
      2 C7          -9.1480    -2.2480    -5.8820 ca         1 U72      -0.144300
      3 C8         -10.1790    -3.1370    -6.2370 ca         1 U72      -0.070000
      4 C9          -9.9730    -4.0700    -7.2630 ca         1 U72      -0.142000
      5 C10         -8.7380    -4.1210    -7.9270 ca         1 U72      -0.074000
      6 C11         -7.7030    -3.2360    -7.5670 ca         1 U72      -0.123300
      7 C12         -6.3590    -3.3200    -8.2830 c6         1 U72      -0.026100
      8 C14         -5.5320    -1.4590    -6.7690 c6         1 U72       0.239800
      9 C15         -5.2340    -2.8610    -7.3420 c6         1 U72      -0.093400
     10 N1          -6.8940    -1.3530    -6.1640 nh         1 U72      -0.773400
     11 N3          -8.5100    -0.0510    -5.0510 nh         1 U72      -0.789600
     12 C4          -9.3410    -1.2350    -4.7760 c6         1 U72       0.270100
     13 N5          -6.3550     0.6460    -5.1350 n2         1 U72      -0.899100
     14 C6          -7.9060    -2.2800    -6.5400 ca         1 U72       0.333000
     15 H1         -11.1360    -3.1030    -5.7200 ha         1 U72       0.111000
     16 H2         -10.7690    -4.7580    -7.5420 ha         1 U72       0.116000
     17 H3          -8.5830    -4.8520    -8.7190 ha         1 U72       0.111000
     18 H4          -6.1640    -4.3470    -8.6220 hc         1 U72       0.052200
     19 H5          -6.3800    -2.6880    -9.1810 hc         1 U72       0.052200
     20 H6         -10.2180     1.1930    -4.6960 h1         1 U72       0.039700
     21 H7          -8.6630     1.9170    -4.2430 h1         1 U72       0.039700
     22 H8          -9.1130     1.7730    -5.9620 h1         1 U72       0.039700
     23 H9          -4.7590    -1.2420    -6.0160 h1         1 U72       0.059200
     24 H10         -5.4240    -0.7120    -7.5710 h1         1 U72       0.059200
     25 H11         -5.1320    -3.5780    -6.5160 hc         1 U72       0.053200
     26 H12         -4.2720    -2.8530    -7.8730 hc         1 U72       0.053200
     27 H13        -10.4060    -0.9730    -4.6900 h1         1 U72       0.045700
     28 H14         -6.8720     1.3420    -4.5930 hn         1 U72       0.389400
     29 H16         -9.0340    -1.6930    -3.8250 h1         1 U72       0.045700
     30 C13         -9.1620     1.2770    -4.9830 c3         1 U72       0.198100
@<TRIPOS>BOND
     1     1    10 1   
     2     1    11 1   
     3     1    13 2   
     4     2     3 ar  
     5     2    12 1   
     6     2    14 ar  
     7     3     4 ar  
     8     3    15 1   
     9     4     5 ar  
    10     4    16 1   
    11     5     6 ar  
    12     5    17 1   
    13     6     7 1   
    14     6    14 ar  
    15     7     9 1   
    16     7    18 1   
    17     7    19 1   
    18     8     9 1   
    19     8    10 1   
    20     8    23 1   
    21     8    24 1   
    22     9    25 1   
    23     9    26 1   
    24    10    14 1   
    25    11    12 1   
    26    11    30 1   
    27    12    27 1   
    28    12    29 1   
    29    13    28 1   
    30    20    30 1   
    31    21    30 1   
    32    22    30 1   
@<TRIPOS>SUBSTRUCTURE
     1 U72         1 TEMP              0 ****  ****    0 ROOT
