@<TRIPOS>MOLECULE
U72
   30    32     1     0     0
SMALL
bcc


@<TRIPOS>ATOM
      1 C2          -7.3360    -0.1200    -5.7170 c2         1 U72       0.829100
      2 C7          -9.1820    -2.2480    -5.9790 ca         1 U72      -0.144300
      3 C8         -10.1780    -3.1480    -6.3200 ca         1 U72      -0.088000
      4 C9          -9.9410    -4.1210    -7.2810 ca         1 U72      -0.160000
      5 C10         -8.6980    -4.1780    -7.8950 ca         1 U72      -0.092000
      6 C11         -7.6940    -3.2680    -7.5910 ca         1 U72      -0.123300
      7 C12         -6.3360    -3.3420    -8.2220 c6         1 U72      -0.026100
      8 C14         -5.6110    -1.4700    -6.7530 c6         1 U72       0.239800
      9 C15         -5.3010    -2.8810    -7.2090 c6         1 U72      -0.093400
     10 N1          -6.9800    -1.3470    -6.2620 nh         1 U72      -0.635000
     11 N3          -8.6480    -0.0090    -5.3220 nh         1 U72      -0.789600
     12 C4          -9.3380    -1.2170    -4.9110 c6         1 U72       0.270100
     13 N5          -6.4460     0.7990    -5.6650 n2         1 U72      -0.899100
     14 C6          -7.9470    -2.2870    -6.6250 ca         1 U72       0.194600
     15 H1         -11.1360    -3.0950    -5.8170 ha         1 U72       0.129000
     16 H2         -10.7130    -4.8350    -7.5390 ha         1 U72       0.134000
     17 H3          -8.4960    -4.9470    -8.6320 ha         1 U72       0.129000
     18 H4          -6.1340    -4.3600    -8.5590 hc         1 U72       0.052200
     19 H5          -6.2890    -2.7030    -9.1090 hc         1 U72       0.052200
     20 H6         -10.1510     1.2000    -4.5770 h1         1 U72       0.039700
     21 H7          -8.6260     1.3740    -3.7030 h1         1 U72       0.039700
     22 H8          -8.8260     2.0790    -5.3180 h1         1 U72       0.039700
     23 H9          -4.9310    -1.1710    -5.9560 h1         1 U72       0.059200
     24 H10         -5.4490    -0.7740    -7.5820 h1         1 U72       0.059200
     25 H11         -5.2900    -3.5620    -6.3540 hc         1 U72       0.053200
     26 H12         -4.2990    -2.8880    -7.6380 hc         1 U72       0.053200
     27 H13        -10.3920    -0.9820    -4.7620 h1         1 U72       0.045700
     28 H14         -6.7790     1.6240    -5.1860 hn         1 U72       0.389400
     29 H16         -8.9570    -1.5930    -3.9500 h1         1 U72       0.045700
     30 C13         -9.0690     1.2200    -4.6930 c3         1 U72       0.198100
@<TRIPOS>BOND
     1     1    10 1   
     2     1    11 1   
     3     1    13 2   
     4     2     3 ar  
     5     2    12 1   
     6     2    14 ar  
     7     3     4 ar  
     8     3    15 1   
     9     4     5 ar  
    10     4    16 1   
    11     5     6 ar  
    12     5    17 1   
    13     6     7 1   
    14     6    14 ar  
    15     7     9 1   
    16     7    18 1   
    17     7    19 1   
    18     8     9 1   
    19     8    10 1   
    20     8    23 1   
    21     8    24 1   
    22     9    25 1   
    23     9    26 1   
    24    10    14 1   
    25    11    12 1   
    26    11    30 1   
    27    12    27 1   
    28    12    29 1   
    29    13    28 1   
    30    20    30 1   
    31    21    30 1   
    32    22    30 1   
@<TRIPOS>SUBSTRUCTURE
     1 U72         1 TEMP              0 ****  ****    0 ROOT
