@<TRIPOS>MOLECULE
U73
   33    34     1     0     0
SMALL
No Charge or Current Charge


@<TRIPOS>ATOM
      1 O11         -1.8700     2.7310    -1.4340 o          1 U73      -0.598100
      2 C10         -2.1630     1.5670    -1.2130 c          1 U73       0.701500
      3 N9          -2.6590     1.1250    -0.0020 ne         1 U73      -0.783100
      4 C3          -1.7910     0.7470     0.8800 cd         1 U73       0.666100
      5 N4          -2.1860    -0.0790     1.8790 na         1 U73      -0.720200
      6 C5          -1.2140    -0.5540     2.7580 cc         1 U73      -0.032000
      7 S2          -0.0690     1.0740     0.9960 ss         1 U73      -0.007800
      8 C1           0.0080    -0.0250     2.3830 cd         1 U73      -0.124600
      9 C6           1.3360    -0.3190     3.0420 c3         1 U73       0.015500
     10 C8           2.3020    -1.0280     2.0680 c3         1 U73      -0.088100
     11 C7           1.9640     0.9520     3.6520 c3         1 U73      -0.088100
     12 C12         -1.9690     0.4430    -2.2430 c3         1 U73      -0.087100
     13 C13         -0.5230    -0.0540    -2.2310 ca         1 U73      -0.119300
     14 C14         -0.1810    -1.2630    -1.5960 ca         1 U73      -0.054000
     15 C15          1.1690    -1.6490    -1.5810 ca         1 U73      -0.165000
     16 C16          2.1260    -0.8250    -2.1960 ca         1 U73       0.334900
     17 N17          1.8080     0.3380    -2.8110 nb         1 U73      -0.668000
     18 C18          0.5060     0.7100    -2.8220 ca         1 U73       0.343900
     19 H4          -3.1690    -0.3310     1.9270 hn         1 U73       0.528000
     20 H5          -1.4410    -1.2420     3.5740 h4         1 U73       0.230000
     21 H6           1.1580    -1.0140     3.8730 hc         1 U73       0.050700
     22 H8C1         3.2290    -1.3110     2.5820 hc         1 U73       0.040700
     23 H8C2         1.8430    -1.9390     1.6670 hc         1 U73       0.040700
     24 H8C3         2.5640    -0.3760     1.2260 hc         1 U73       0.040700
     25 H7C1         2.2160     1.6820     2.8730 hc         1 U73       0.040700
     26 H7C2         1.2670     1.4260     4.3540 hc         1 U73       0.040700
     27 H7C3         2.8810     0.7060     4.1990 hc         1 U73       0.040700
     28 H121        -2.6360    -0.3930    -2.0020 hc         1 U73       0.074700
     29 H122        -2.2130     0.8330    -3.2380 hc         1 U73       0.074700
     30 H14         -0.9370    -1.8820    -1.1180 ha         1 U73       0.118000
     31 H15          1.4760    -2.5720    -1.0980 ha         1 U73       0.121000
     32 H16          3.1790    -1.1020    -2.1960 h4         1 U73       0.016100
     33 H18          0.2820     1.6550    -3.3160 h4         1 U73       0.015100
@<TRIPOS>BOND
     1     1     2 2   
     2     2     3 1   
     3     2    12 1   
     4     3     4 2   
     5     4     5 1   
     6     4     7 1   
     7     5     6 1   
     8     5    19 1   
     9     6     8 2   
    10     6    20 1   
    11     7     8 1   
    12     8     9 1   
    13     9    10 1   
    14     9    11 1   
    15     9    21 1   
    16    10    22 1   
    17    10    23 1   
    18    10    24 1   
    19    11    25 1   
    20    11    26 1   
    21    11    27 1   
    22    12    13 1   
    23    12    28 1   
    24    12    29 1   
    25    13    14 ar  
    26    13    18 ar  
    27    14    15 ar  
    28    14    30 1   
    29    15    16 ar  
    30    15    31 1   
    31    16    17 ar  
    32    16    32 1   
    33    17    18 ar  
    34    18    33 1   
@<TRIPOS>SUBSTRUCTURE
     1 U73         1 TEMP              0 ****  ****    0 ROOT
