@<TRIPOS>MOLECULE
U73
   33    34     1     0     0
SMALL
bcc


@<TRIPOS>ATOM
      1 O11          0.4360    -0.0880    -0.7710 o          1 U73      -0.598100
      2 C10         -0.7790    -0.0140    -0.9210 c          1 U73       0.701500
      3 N9          -1.6800     0.0660     0.0880 ne         1 U73      -0.783100
      4 C3          -1.2150     0.0610     1.3090 cd         1 U73       0.666100
      5 N4          -2.0170     0.1320     2.3790 na         1 U73      -0.665000
      6 C5          -1.4000     0.1140     3.6100 cc         1 U73       0.018000
      7 S2           0.4400    -0.0320     1.8550 ss         1 U73      -0.007800
      8 C1          -0.0650     0.0280     3.5340 cd         1 U73      -0.124600
      9 C6           0.9280    -0.0140     4.6520 c3         1 U73       0.015500
     10 C8           1.7230    -1.3200     4.6450 c3         1 U73      -0.088100
     11 C7           1.8640     1.1950     4.6150 c3         1 U73      -0.088100
     12 C12         -1.4190    -0.0140    -2.2950 c3         1 U73      -0.087100
     13 C13         -0.4280    -0.0310    -3.4140 ca         1 U73      -0.184600
     14 C14          0.2690    -1.1850    -3.7560 ca         1 U73      -0.072000
     15 C15          1.1820    -1.1430    -4.7970 ca         1 U73      -0.248300
     16 C16          1.3720     0.0590    -5.4630 ca         1 U73       0.400200
     17 N17          0.7170     1.1700    -5.1520 nb         1 U73      -0.668000
     18 C18         -0.1560     1.1140    -4.1520 ca         1 U73       0.409200
     19 H4          -3.0190     0.1860     2.2650 hn         1 U73       0.472800
     20 H5          -2.0060     0.1670     4.5000 h4         1 U73       0.180000
     21 H6           0.3470     0.0290     5.5770 hc         1 U73       0.050700
     22 H8C1         2.3890    -1.3630     5.5080 hc         1 U73       0.040700
     23 H8C2         1.0670    -2.1890     4.6810 hc         1 U73       0.040700
     24 H8C3         2.3420    -1.4020     3.7480 hc         1 U73       0.040700
     25 H7C1         2.4870     1.1850     3.7190 hc         1 U73       0.040700
     26 H7C2         1.3070     2.1310     4.6290 hc         1 U73       0.040700
     27 H7C3         2.5300     1.1830     5.4790 hc         1 U73       0.040700
     28 H121        -2.0820    -0.8820    -2.3530 hc         1 U73       0.074700
     29 H122        -2.0730     0.8590    -2.3680 hc         1 U73       0.074700
     30 H14          0.0930    -2.1100    -3.2210 ha         1 U73       0.136000
     31 H15          1.7390    -2.0230    -5.0900 ha         1 U73       0.139000
     32 H16          2.0800     0.1230    -6.2830 h4         1 U73       0.016100
     33 H18         -0.6800     2.0380    -3.9210 h4         1 U73       0.015100
@<TRIPOS>BOND
     1     1     2 2   
     2     2     3 1   
     3     2    12 1   
     4     3     4 2   
     5     4     5 1   
     6     4     7 1   
     7     5     6 1   
     8     5    19 1   
     9     6     8 2   
    10     6    20 1   
    11     7     8 1   
    12     8     9 1   
    13     9    10 1   
    14     9    11 1   
    15     9    21 1   
    16    10    22 1   
    17    10    23 1   
    18    10    24 1   
    19    11    25 1   
    20    11    26 1   
    21    11    27 1   
    22    12    13 1   
    23    12    28 1   
    24    12    29 1   
    25    13    14 ar  
    26    13    18 ar  
    27    14    15 ar  
    28    14    30 1   
    29    15    16 ar  
    30    15    31 1   
    31    16    17 ar  
    32    16    32 1   
    33    17    18 ar  
    34    18    33 1   
@<TRIPOS>SUBSTRUCTURE
     1 U73         1 TEMP              0 ****  ****    0 ROOT
