@<TRIPOS>MOLECULE
U74
   35    38     1     0     0
SMALL
No Charge or Current Charge


@<TRIPOS>ATOM
      1 C1          35.6800    42.9620    17.4270 ca         1 U74       0.151100
      2 C2          36.6150    43.7710    16.7470 ca         1 U74      -0.181500
      3 C3          37.3350    43.2510    15.6590 ca         1 U74      -0.043000
      4 C7          37.9190    41.3620    14.0820 cp         1 U74       0.497500
      5 C8          39.3290    41.3010    14.0290 ca         1 U74      -0.272900
      6 C9          39.9520    40.8380    12.9140 ca         1 U74      -0.013200
      7 C10         39.2200    40.3950    11.8120 ca         1 U74      -0.192000
      8 C11         37.8180    40.4470    11.9260 ca         1 U74       0.368900
      9 C12         40.3990    41.6150    14.9530 cc         1 U74       0.418900
     10 C13         40.2130    42.0850    16.3410 cx         1 U74      -0.156000
     11 C14         39.5170    41.1990    17.3540 cx         1 U74      -0.114900
     12 C15         41.0020    41.4480    17.4670 cx         1 U74      -0.114900
     13 C           35.0890    44.7500    19.0220 c3         1 U74       0.148900
     14 O           34.9450    43.4160    18.5030 os         1 U74      -0.340100
     15 C6          35.4710    41.6420    17.0000 ca         1 U74      -0.181500
     16 C5          36.1910    41.1220    15.9120 ca         1 U74      -0.043000
     17 C4          37.1470    41.9140    15.2320 cp         1 U74      -0.188500
     18 N           37.1820    40.9120    13.0350 nb         1 U74      -0.703000
     19 N1          41.3060    40.8990    13.1280 na         1 U74      -0.057400
     20 N2          41.6040    41.3840    14.4030 nd         1 U74      -0.530100
     21 H1          36.7950    44.8000    17.0460 ha         1 U74       0.123500
     22 H2          38.0470    43.8880    15.1360 ha         1 U74       0.122500
     23 H3          39.6980    40.0170    10.9130 ha         1 U74       0.129000
     24 H4          37.1830    40.1070    11.1090 h4         1 U74       0.019100
     25 H5          40.0540    43.1570    16.4070 hc         1 U74       0.095700
     26 H6          38.8620    41.6790    18.0770 hc         1 U74       0.076450
     27 H7          39.1920    40.2130    17.0320 hc         1 U74       0.076450
     28 H8          41.6710    40.6250    17.2270 hc         1 U74       0.076450
     29 H9          41.3470    42.0940    18.2720 hc         1 U74       0.076450
     30 H10         34.4180    44.9000    19.8760 h1         1 U74       0.041367
     31 H11         36.1170    44.9270    19.3620 h1         1 U74       0.041367
     32 H12         34.8370    45.4950    18.2570 h1         1 U74       0.041367
     33 H13         34.7470    41.0170    17.5170 ha         1 U74       0.123500
     34 H14         36.0180    40.0950    15.5960 ha         1 U74       0.122500
     35 H15         42.0350    40.6310    12.4680 hn         1 U74       0.380000
@<TRIPOS>BOND
     1     1     2 ar  
     2     1    14 1   
     3     1    15 ar  
     4     2     3 ar  
     5     2    21 1   
     6     3    17 ar  
     7     3    22 1   
     8     4     5 ar  
     9     4    17 1   
    10     4    18 ar  
    11     5     6 ar  
    12     5     9 1   
    13     6     7 ar  
    14     6    19 1   
    15     7     8 ar  
    16     7    23 1   
    17     8    18 ar  
    18     8    24 1   
    19     9    10 1   
    20     9    20 2   
    21    10    11 1   
    22    10    12 1   
    23    10    25 1   
    24    11    12 1   
    25    11    26 1   
    26    11    27 1   
    27    12    28 1   
    28    12    29 1   
    29    13    14 1   
    30    13    30 1   
    31    13    31 1   
    32    13    32 1   
    33    15    16 ar  
    34    15    33 1   
    35    16    17 ar  
    36    16    34 1   
    37    19    20 1   
    38    19    35 1   
@<TRIPOS>SUBSTRUCTURE
     1 U74         1 TEMP              0 ****  ****    0 ROOT
