@<TRIPOS>MOLECULE
U74
   35    38     1     0     0
SMALL
abcg2


@<TRIPOS>ATOM
      1 C1          35.4560    43.1700    17.2640 ca         1 U74       0.151100
      2 C2          36.6060    43.8130    16.8130 ca         1 U74      -0.181500
      3 C3          37.3610    43.2420    15.7960 ca         1 U74      -0.043000
      4 C7          37.7700    41.4620    14.0910 cp         1 U74       0.497500
      5 C8          39.1590    41.2320    14.1540 ca         1 U74      -0.272900
      6 C9          39.7960    40.7610    12.9900 ca         1 U74      -0.013200
      7 C10         39.0790    40.4950    11.8210 ca         1 U74      -0.192000
      8 C11         37.7250    40.7040    11.9090 ca         1 U74       0.368900
      9 C12         40.2110    41.2930    15.1300 cc         1 U74       0.418900
     10 C13         40.1380    41.6000    16.5700 cx         1 U74      -0.156000
     11 C14         40.6260    40.5770    17.5680 cx         1 U74      -0.114900
     12 C15         41.3900    41.8410    17.3610 cx         1 U74      -0.114900
     13 C           34.9950    44.8480    18.8770 c3         1 U74       0.148900
     14 O           34.6600    43.6280    18.2440 os         1 U74      -0.340100
     15 C6          35.0710    41.9630    16.6710 ca         1 U74      -0.181500
     16 C5          35.8230    41.4170    15.6500 ca         1 U74      -0.043000
     17 C4          36.9930    42.0380    15.2070 cp         1 U74      -0.188500
     18 N           37.0890    41.1740    12.9970 nb         1 U74      -0.703000
     19 N1          41.0920    40.6140    13.3040 na         1 U74      -0.057400
     20 N2          41.3420    40.9280    14.5810 nd         1 U74      -0.530100
     21 H1          36.9260    44.7570    17.2330 ha         1 U74       0.123500
     22 H2          38.2440    43.7640    15.4490 ha         1 U74       0.122500
     23 H3          39.5430    40.1330    10.9140 ha         1 U74       0.129000
     24 H4          37.0940    40.4950    11.0530 h4         1 U74       0.019100
     25 H5          39.2670    42.1600    16.8760 hc         1 U74       0.095700
     26 H6          40.0550    40.4580    18.4800 hc         1 U74       0.076450
     27 H7          41.0420    39.6600    17.1720 hc         1 U74       0.076450
     28 H8          42.3340    41.7860    16.8360 hc         1 U74       0.076450
     29 H9          41.3470    42.5990    18.1320 hc         1 U74       0.076450
     30 H10         34.2370    45.0190    19.6360 h1         1 U74       0.041367
     31 H11         35.9740    44.8020    19.3610 h1         1 U74       0.041367
     32 H12         34.9870    45.6870    18.1760 h1         1 U74       0.041367
     33 H13         34.1760    41.4620    17.0170 ha         1 U74       0.123500
     34 H14         35.5070    40.4860    15.1980 ha         1 U74       0.122500
     35 H15         41.8410    40.2920    12.7120 hn         1 U74       0.380000
@<TRIPOS>BOND
     1     1     2 ar  
     2     1    14 1   
     3     1    15 ar  
     4     2     3 ar  
     5     2    21 1   
     6     3    17 ar  
     7     3    22 1   
     8     4     5 ar  
     9     4    17 1   
    10     4    18 ar  
    11     5     6 ar  
    12     5     9 1   
    13     6     7 ar  
    14     6    19 1   
    15     7     8 ar  
    16     7    23 1   
    17     8    18 ar  
    18     8    24 1   
    19     9    10 1   
    20     9    20 2   
    21    10    11 1   
    22    10    12 1   
    23    10    25 1   
    24    11    12 1   
    25    11    26 1   
    26    11    27 1   
    27    12    28 1   
    28    12    29 1   
    29    13    14 1   
    30    13    30 1   
    31    13    31 1   
    32    13    32 1   
    33    15    16 ar  
    34    15    33 1   
    35    16    17 ar  
    36    16    34 1   
    37    19    20 1   
    38    19    35 1   
@<TRIPOS>SUBSTRUCTURE
     1 U74         1 TEMP              0 ****  ****    0 ROOT
