@<TRIPOS>MOLECULE
U75
   51    53     1     0     0
SMALL
bcc


@<TRIPOS>ATOM
      1 C4          -5.6280    -0.5590     0.6210 ca         1 U75       0.541600
      2 C5          -4.3910    -0.3200     0.0270 ca         1 U75      -0.329600
      3 C6          -4.3990    -0.1360    -1.3820 ca         1 U75       0.761200
      4 N1          -5.5270    -0.1780    -2.0780 nb         1 U75      -0.867000
      5 N3          -6.7540    -0.6010    -0.0800 nb         1 U75      -0.823000
      6 CAI         -5.9750     0.5980     2.8060 c3         1 U75      -0.083100
      7 CAH         -5.7480    -0.7410     2.1030 c3         1 U75      -0.133700
      8 C2          -6.6520    -0.3990    -1.3980 ca         1 U75       0.949900
      9 NAJ         -7.7970    -0.4040    -2.1020 nv         1 U75      -0.960500
     10 NAG         -3.2610     0.1110    -2.0510 nv         1 U75      -0.955500
     11 CAK         -3.1740    -0.2390     0.7470 cg         1 U75      -0.117000
     12 CAL         -2.0970    -0.1410     1.2840 c1         1 U75      -0.128100
     13 CAM         -0.7880     0.0350     1.8970 c3         1 U75       0.057000
     14 CAN          0.2460     0.5810     0.9350 ca         1 U75      -0.053300
     15 CAO          1.5690     0.1900     1.0650 ca         1 U75      -0.161000
     16 CAS         -0.1180     1.4890    -0.0560 ca         1 U75      -0.236000
     17 CAR          0.8490     1.9920    -0.9210 ca         1 U75       0.131100
     18 OBB          0.5890     2.8670    -1.9110 os         1 U75      -0.323900
     19 CBC         -0.7410     3.3070    -2.0960 c3         1 U75       0.128700
     20 CAQ          2.1790     1.5960    -0.7850 ca         1 U75      -0.162000
     21 CAP          2.5490     0.6970     0.2070 cp         1 U75       0.048000
     22 CAT          3.9570     0.2740     0.3510 cp         1 U75      -0.095000
     23 CAU          4.7730     0.0870    -0.7660 ca         1 U75      -0.139000
     24 CAV          6.0900    -0.3210    -0.6230 ca         1 U75      -0.112000
     25 CAW          6.6410    -0.5500     0.6350 ca         1 U75      -0.115600
     26 CAZ          8.0880    -1.0000     0.7870 c          1 U75       0.921200
     27 OBD          8.5070    -1.1500     1.9510 o          1 U75      -0.822800
     28 OBA          8.7290    -1.1800    -0.2670 o          1 U75      -0.822800
     29 CAX          5.8280    -0.3560     1.7500 ca         1 U75      -0.112000
     30 CAY          4.5080     0.0450     1.6120 ca         1 U75      -0.139000
     31 H1          -5.1320     1.2720     2.6550 hc         1 U75       0.037367
     32 H2          -6.8730     1.0890     2.4310 hc         1 U75       0.037367
     33 H3          -6.0960     0.4500     3.8790 hc         1 U75       0.037367
     34 H4          -6.5870    -1.4080     2.3050 hc         1 U75       0.059200
     35 H5          -4.8480    -1.2140     2.5000 hc         1 U75       0.059200
     36 H6          -7.7620    -0.4160    -3.1060 hn         1 U75       0.439300
     37 H7          -8.6440    -0.7120    -1.6590 hn         1 U75       0.439300
     38 H8          -2.3710    -0.0370    -1.6050 hn         1 U75       0.442800
     39 H9          -3.2770     0.0830    -3.0560 hn         1 U75       0.442800
     40 H10         -0.8790     0.7150     2.7510 hc         1 U75       0.064200
     41 H11         -0.4350    -0.9140     2.3070 hc         1 U75       0.064200
     42 H12          1.8360    -0.5350     1.8250 ha         1 U75       0.138000
     43 H13         -1.1550     1.7900    -0.1370 ha         1 U75       0.131000
     44 H14         -1.1220     3.8390    -1.2200 h1         1 U75       0.034700
     45 H15         -0.7260     3.9900    -2.9410 h1         1 U75       0.034700
     46 H16         -1.4190     2.4800    -2.3270 h1         1 U75       0.034700
     47 H17          2.9200     2.0140    -1.4550 ha         1 U75       0.151000
     48 H18          4.3710     0.2390    -1.7600 ha         1 U75       0.107000
     49 H19          6.6990    -0.4710    -1.5040 ha         1 U75       0.147000
     50 H21          6.2330    -0.5200     2.7390 ha         1 U75       0.147000
     51 H22          3.9060     0.2000     2.5000 ha         1 U75       0.107000
@<TRIPOS>BOND
     1     1     2 ar  
     2     1     5 ar  
     3     1     7 1   
     4     2     3 ar  
     5     2    11 1   
     6     3     4 ar  
     7     3    10 1   
     8     4     8 ar  
     9     5     8 ar  
    10     6     7 1   
    11     6    31 1   
    12     6    32 1   
    13     6    33 1   
    14     7    34 1   
    15     7    35 1   
    16     8     9 1   
    17     9    36 1   
    18     9    37 1   
    19    10    38 1   
    20    10    39 1   
    21    11    12 3   
    22    12    13 1   
    23    13    14 1   
    24    13    40 1   
    25    13    41 1   
    26    14    15 ar  
    27    14    16 ar  
    28    15    21 ar  
    29    15    42 1   
    30    16    17 ar  
    31    16    43 1   
    32    17    18 1   
    33    17    20 ar  
    34    18    19 1   
    35    19    44 1   
    36    19    45 1   
    37    19    46 1   
    38    20    21 ar  
    39    20    47 1   
    40    21    22 1   
    41    22    23 ar  
    42    22    30 ar  
    43    23    24 ar  
    44    23    48 1   
    45    24    25 ar  
    46    24    49 1   
    47    25    26 1   
    48    25    29 ar  
    49    26    27 1   
    50    26    28 1   
    51    29    30 ar  
    52    29    50 1   
    53    30    51 1   
@<TRIPOS>SUBSTRUCTURE
     1 U75         1 TEMP              0 ****  ****    0 ROOT
