@<TRIPOS>MOLECULE
U75
   51    53     1     0     0
SMALL
No Charge or Current Charge


@<TRIPOS>ATOM
      1 C4          -4.9960    -1.1720     0.7250 ca         1 U75       0.213300
      2 C5          -4.0140    -0.4420     0.0100 ca         1 U75      -0.199000
      3 C6          -4.0490    -0.5600    -1.3960 ca         1 U75       0.432900
      4 N1          -4.9460    -1.3140    -2.0360 nb         1 U75      -0.341000
      5 N3          -5.9050    -1.9300     0.0770 nb         1 U75      -0.297000
      6 CAI         -5.8710     0.0760     2.7780 c3         1 U75      -0.083100
      7 CAH         -5.1100    -1.1570     2.2490 c3         1 U75      -0.133700
      8 C2          -5.8220    -1.9510    -1.2580 ca         1 U75       0.423900
      9 NAJ         -6.7320    -2.7150    -1.8980 nv         1 U75      -1.070900
     10 NAG         -3.1700     0.0770    -2.2140 nv         1 U75      -1.065900
     11 CAK         -3.0320     0.3740     0.6800 cg         1 U75      -0.117000
     12 CAL         -2.2010     1.0530     1.2470 c1         1 U75      -0.128100
     13 CAM         -1.1650     1.8680     1.8960 c3         1 U75       0.057000
     14 CAN          0.0490     2.0280     0.9860 ca         1 U75      -0.053300
     15 CAO          1.0970     1.0900     1.0330 ca         1 U75      -0.143000
     16 CAS          0.1260     3.1080     0.0890 ca         1 U75      -0.218000
     17 CAR          1.2470     3.2490    -0.7560 ca         1 U75       0.131100
     18 OBB          1.3750     4.2910    -1.6520 os         1 U75      -0.347100
     19 CBC          0.3690     5.3110    -1.7920 c3         1 U75       0.151900
     20 CAQ          2.2840     2.3060    -0.6970 ca         1 U75      -0.144000
     21 CAP          2.2340     1.2080     0.1950 cp         1 U75       0.048000
     22 CAT          3.3450     0.2030     0.2510 cp         1 U75      -0.095000
     23 CAU          4.0640    -0.1630    -0.9130 ca         1 U75      -0.121000
     24 CAV          5.1070    -1.1050    -0.8620 ca         1 U75      -0.094000
     25 CAW          5.4710    -1.7170     0.3590 ca         1 U75      -0.115600
     26 CAZ          6.6000    -2.7360     0.4160 c          1 U75       0.710600
     27 OBD          6.8800    -3.2410     1.4940 o          1 U75      -0.717500
     28 OBA          7.1900    -3.0160    -0.6190 o          1 U75      -0.717500
     29 CAX          4.7590    -1.3560     1.5260 ca         1 U75      -0.094000
     30 CAY          3.7160    -0.4150     1.4710 ca         1 U75      -0.121000
     31 H1          -5.3580     1.0030     2.4950 hc         1 U75       0.037367
     32 H2          -6.8880     0.1070     2.3700 hc         1 U75       0.037367
     33 H3          -5.9400     0.0440     3.8720 hc         1 U75       0.037367
     34 H4          -5.6260    -2.0610     2.5990 hc         1 U75       0.059200
     35 H5          -4.1150    -1.1910     2.7090 hc         1 U75       0.059200
     36 H6          -6.5600    -2.9440    -2.8740 hn         1 U75       0.494500
     37 H7          -7.2580    -3.3960    -1.3560 hn         1 U75       0.494500
     38 H8          -2.3410     0.4840    -1.7900 hn         1 U75       0.498000
     39 H9          -3.0860    -0.2420    -3.1750 hn         1 U75       0.498000
     40 H10         -1.5890     2.8460     2.1520 hc         1 U75       0.064200
     41 H11         -0.8800     1.3950     2.8430 hc         1 U75       0.064200
     42 H12          1.0220     0.2480     1.7160 ha         1 U75       0.120000
     43 H13         -0.6900     3.8240     0.0590 ha         1 U75       0.113000
     44 H14          0.2260     5.8500    -0.8470 h1         1 U75       0.034700
     45 H15          0.6700     6.0380    -2.5560 h1         1 U75       0.034700
     46 H16         -0.5890     4.8730    -2.0980 h1         1 U75       0.034700
     47 H17          3.1450     2.4370    -1.3450 ha         1 U75       0.133000
     48 H18          3.8040     0.2760    -1.8720 ha         1 U75       0.089000
     49 H19          5.6300    -1.3590    -1.7810 ha         1 U75       0.129000
     50 H21          5.0130    -1.8040     2.4840 ha         1 U75       0.129000
     51 H22          3.2010    -0.1530     2.3910 ha         1 U75       0.089000
@<TRIPOS>BOND
     1     1     2 ar  
     2     1     5 ar  
     3     1     7 1   
     4     2     3 ar  
     5     2    11 1   
     6     3     4 ar  
     7     3    10 1   
     8     4     8 ar  
     9     5     8 ar  
    10     6     7 1   
    11     6    31 1   
    12     6    32 1   
    13     6    33 1   
    14     7    34 1   
    15     7    35 1   
    16     8     9 1   
    17     9    36 1   
    18     9    37 1   
    19    10    38 1   
    20    10    39 1   
    21    11    12 3   
    22    12    13 1   
    23    13    14 1   
    24    13    40 1   
    25    13    41 1   
    26    14    15 ar  
    27    14    16 ar  
    28    15    21 ar  
    29    15    42 1   
    30    16    17 ar  
    31    16    43 1   
    32    17    18 1   
    33    17    20 ar  
    34    18    19 1   
    35    19    44 1   
    36    19    45 1   
    37    19    46 1   
    38    20    21 ar  
    39    20    47 1   
    40    21    22 1   
    41    22    23 ar  
    42    22    30 ar  
    43    23    24 ar  
    44    23    48 1   
    45    24    25 ar  
    46    24    49 1   
    47    25    26 1   
    48    25    29 ar  
    49    26    27 1   
    50    26    28 1   
    51    29    30 ar  
    52    29    50 1   
    53    30    51 1   
@<TRIPOS>SUBSTRUCTURE
     1 U75         1 TEMP              0 ****  ****    0 ROOT
