@<TRIPOS>MOLECULE
U76
   85    88     1     0     0
SMALL
abcg2


@<TRIPOS>ATOM
      1 C13        -19.5170     0.1400    10.8350 c5         1 U76      -0.150700
      2 C15        -21.5300     0.9670     9.7840 c5         1 U76       0.101000
      3 C17        -19.1970     1.3070     9.9040 c          1 U76       0.554000
      4 C21        -17.5500    -3.8230    10.5880 c          1 U76       0.603100
      5 C24        -19.2810    -4.9510     8.0430 cx         1 U76      -0.135900
      6 C28        -20.7800    -0.7380    16.2800 c3         1 U76      -0.072400
      7 C02        -18.8860     1.6650    14.2120 c          1 U76       0.553000
      8 C03        -19.0340     3.0670    13.6550 c6         1 U76      -0.157400
      9 C04        -20.4300     3.4480    13.1770 c6         1 U76      -0.104400
     10 C05        -21.4710     2.9580    14.1790 c6         1 U76       0.112700
     11 C06        -21.3670     1.4500    14.3100 c6         1 U76       0.091000
     12 N07        -20.0010     1.0060    14.6320 n          1 U76      -0.415800
     13 C08        -19.8340    -0.3700    15.1460 c3         1 U76       0.024700
     14 N10        -18.8030    -1.4230    13.2360 ns         1 U76      -0.517900
     15 C11        -18.7150    -2.0140    11.9070 c3         1 U76       0.072700
     16 C12        -18.4440    -0.9370    10.8530 c3         1 U76      -0.077400
     17 C14        -20.9170    -0.3030    10.3900 c5         1 U76      -0.097400
     18 N16        -20.3510     1.6960     9.3290 ns         1 U76      -0.517900
     19 O18        -18.0940     1.8210     9.7340 o          1 U76      -0.548000
     20 C19        -17.6380    -3.1190    11.9400 c3         1 U76       0.078300
     21 O20        -17.9490    -4.0830    12.9380 oh         1 U76      -0.665000
     22 C23        -18.5330    -5.5670     9.1930 cx         1 U76       0.050700
     23 C25        -19.8860    -6.0900     8.8230 cx         1 U76      -0.135900
     24 O26        -16.7640    -3.4370     9.7250 o          1 U76      -0.595100
     25 O27        -20.9900    -1.9120    13.6620 o          1 U76      -0.599100
     26 C30        -19.3140     0.3050    18.0830 c3         1 U76      -0.091600
     27 C31        -21.7130    -0.3020    18.5590 c3         1 U76      -0.091600
     28 N32        -21.3040     3.5890    15.4860 ns         1 U76      -0.491900
     29 C33        -21.6800     4.8650    15.7010 c          1 U76       0.625100
     30 O34        -21.1770     5.3160    16.8820 os         1 U76      -0.462100
     31 C35        -21.3110     6.7200    17.1270 c3         1 U76       0.223900
     32 C36        -20.3950     7.5500    16.2590 ca         1 U76      -0.058300
     33 C37        -20.6600     8.9110    16.1120 ca         1 U76      -0.157000
     34 C38        -19.8090     9.6720    15.3340 ca         1 U76       0.197500
     35 F39        -20.0670    10.9930    15.1910 f          1 U76      -0.174000
     36 C40        -18.7080     9.1480    14.6790 ca         1 U76      -0.185000
     37 C41        -18.4850     7.7940    14.8490 ca         1 U76       0.197500
     38 F42        -17.4250     7.2350    14.2200 f          1 U76      -0.174000
     39 C43        -19.2910     6.9830    15.6270 ca         1 U76      -0.157000
     40 O44        -22.3770     5.5370    14.9620 o          1 U76      -0.524000
     41 H1         -19.5820     0.5910    11.8290 hc         1 U76       0.060700
     42 H2         -22.0740     1.5480    10.5350 h1         1 U76       0.044200
     43 H3         -22.2030     0.7590     8.9540 h1         1 U76       0.044200
     44 H4         -19.6910    -3.9630     8.2050 hc         1 U76       0.077200
     45 H5         -18.9140    -5.1420     7.0450 hc         1 U76       0.077200
     46 H6         -21.8050    -0.8090    15.9150 hc         1 U76       0.060700
     47 H7         -20.5020    -1.7490    16.5930 hc         1 U76       0.060700
     48 H8         -18.3010     3.1620    12.8550 hc         1 U76       0.085200
     49 H9         -18.7080     3.7390    14.4540 hc         1 U76       0.085200
     50 H10        -20.5020     4.5280    13.0470 hc         1 U76       0.068200
     51 H11        -20.6420     2.9880    12.2100 hc         1 U76       0.068200
     52 H12        -22.4740     3.1930    13.8260 h1         1 U76       0.092700
     53 H13        -21.6910     0.9930    13.3720 h1         1 U76       0.066700
     54 H14        -22.0330     1.1030    15.0950 h1         1 U76       0.066700
     55 H15        -18.8120    -0.4180    15.5090 h1         1 U76       0.094700
     56 H16        -18.0530    -0.8010    13.5200 hn         1 U76       0.341500
     57 H17        -19.6730    -2.4960    11.7180 h1         1 U76       0.084700
     58 H18        -18.3840    -1.4060     9.8700 hc         1 U76       0.079700
     59 H19        -17.4720    -0.4770    11.0500 hc         1 U76       0.079700
     60 H20        -21.5160    -0.7010    11.2060 hc         1 U76       0.066700
     61 H21        -20.8260    -1.0750     9.6220 hc         1 U76       0.066700
     62 H22        -20.4040     2.5370     8.7740 hn         1 U76       0.330500
     63 H23        -16.6600    -2.6650    12.1290 h1         1 U76       0.075700
     64 H24        -18.1860    -3.6030    13.7440 ho         1 U76       0.463000
     65 H26        -17.6710    -6.1780     8.9530 h1         1 U76       0.092700
     66 H27        -20.7030    -5.8580     9.4930 hc         1 U76       0.077200
     67 H28        -19.9360    -7.0660     8.3610 hc         1 U76       0.077200
     68 H29        -21.0430     1.1880    17.1920 hc         1 U76       0.043700
     69 H30        -19.3230     0.9210    18.9850 hc         1 U76       0.037367
     70 H31        -18.9260    -0.6810    18.3540 hc         1 U76       0.037367
     71 H32        -18.6160     0.7610    17.3790 hc         1 U76       0.037367
     72 H33        -21.7320     0.3720    19.4180 hc         1 U76       0.037367
     73 H34        -22.7250    -0.3640    18.1530 hc         1 U76       0.037367
     74 H35        -21.4320    -1.2960    18.9180 hc         1 U76       0.037367
     75 H36        -20.6170     3.2100    16.1200 hn         1 U76       0.329500
     76 H37        -21.0490     6.8390    18.1780 h1         1 U76       0.078700
     77 H38        -22.3450     7.0310    16.9880 h1         1 U76       0.078700
     78 H39        -21.5170     9.3720    16.5840 ha         1 U76       0.137500
     79 H40        -18.0640     9.7610    14.0640 ha         1 U76       0.154000
     80 H41        -19.0600     5.9320    15.7220 ha         1 U76       0.137500
     81 N22        -18.4220    -4.8300    10.4170 ns         1 U76      -0.471900
     82 C09        -19.9500    -1.3310    13.9520 c          1 U76       0.570100
     83 C29        -20.7240     0.1880    17.5010 c3         1 U76      -0.060700
     84 H25        -18.9580    -5.1220    11.2200 hn         1 U76       0.338500
     85 O01        -17.7600     1.1650    14.3070 o          1 U76      -0.581000
@<TRIPOS>BOND
     1     1     3 1   
     2     1    16 1   
     3     1    17 1   
     4     1    41 1   
     5     2    17 1   
     6     2    18 1   
     7     2    42 1   
     8     2    43 1   
     9     3    18 1   
    10     3    19 2   
    11     4    20 1   
    12     4    24 2   
    13     4    81 1   
    14     5    22 1   
    15     5    23 1   
    16     5    44 1   
    17     5    45 1   
    18     6    13 1   
    19     6    46 1   
    20     6    47 1   
    21     6    83 1   
    22     7     8 1   
    23     7    12 1   
    24     7    85 2   
    25     8     9 1   
    26     8    48 1   
    27     8    49 1   
    28     9    10 1   
    29     9    50 1   
    30     9    51 1   
    31    10    11 1   
    32    10    28 1   
    33    10    52 1   
    34    11    12 1   
    35    11    53 1   
    36    11    54 1   
    37    12    13 1   
    38    13    55 1   
    39    13    82 1   
    40    14    15 1   
    41    14    56 1   
    42    14    82 1   
    43    15    16 1   
    44    15    20 1   
    45    15    57 1   
    46    16    58 1   
    47    16    59 1   
    48    17    60 1   
    49    17    61 1   
    50    18    62 1   
    51    20    21 1   
    52    20    63 1   
    53    21    64 1   
    54    22    23 1   
    55    22    65 1   
    56    22    81 1   
    57    23    66 1   
    58    23    67 1   
    59    25    82 2   
    60    26    69 1   
    61    26    70 1   
    62    26    71 1   
    63    26    83 1   
    64    27    72 1   
    65    27    73 1   
    66    27    74 1   
    67    27    83 1   
    68    28    29 1   
    69    28    75 1   
    70    29    30 1   
    71    29    40 2   
    72    30    31 1   
    73    31    32 1   
    74    31    76 1   
    75    31    77 1   
    76    32    33 ar  
    77    32    39 ar  
    78    33    34 ar  
    79    33    78 1   
    80    34    35 1   
    81    34    36 ar  
    82    36    37 ar  
    83    36    79 1   
    84    37    38 1   
    85    37    39 ar  
    86    39    80 1   
    87    68    83 1   
    88    81    84 1   
@<TRIPOS>SUBSTRUCTURE
     1 U76         1 TEMP              0 ****  ****    0 ROOT
