@<TRIPOS>MOLECULE
U76
   85    88     1     0     0
SMALL
No Charge or Current Charge


@<TRIPOS>ATOM
      1 C13        -19.6300     0.1160    10.4320 c5         1 U76      -0.150700
      2 C15        -21.6990     1.1410     9.7740 c5         1 U76       0.101000
      3 C17        -19.3960     0.9720     9.1800 c          1 U76       0.554000
      4 C21        -17.7080    -3.9640    10.5380 c          1 U76       0.603100
      5 C24        -19.3790    -5.4110     7.9360 cx         1 U76      -0.135900
      6 C28        -20.5670    -0.5770    16.3710 c3         1 U76      -0.072400
      7 C02        -18.4900     1.6860    14.1010 c          1 U76       0.553000
      8 C03        -18.6030     3.1370    13.6080 c6         1 U76      -0.157400
      9 C04        -19.9890     3.5030    13.0160 c6         1 U76      -0.104400
     10 C05        -21.1360     3.0000    13.9220 c6         1 U76       0.112700
     11 C06        -20.9960     1.4680    14.0860 c6         1 U76       0.091000
     12 N07        -19.6530     1.0460    14.5930 n          1 U76      -0.415800
     13 C08        -19.5370    -0.3200    15.2280 c3         1 U76       0.024700
     14 N10        -18.9370    -1.1980    12.9840 ns         1 U76      -0.517900
     15 C11        -18.9520    -2.0360    11.7740 c3         1 U76       0.072700
     16 C12        -18.7040    -1.1310    10.5340 c3         1 U76      -0.077400
     17 C14        -21.1490    -0.1970    10.3390 c5         1 U76      -0.097400
     18 N16        -20.6130     1.5140     8.8680 ns         1 U76      -0.517900
     19 O18        -18.4330     1.0140     8.4330 o          1 U76      -0.548000
     20 C19        -17.9670    -3.2440    11.9010 c3         1 U76       0.078300
     21 O20        -18.4560    -4.1610    12.9170 oh         1 U76      -0.665000
     22 C23        -18.4970    -5.8330     9.0850 cx         1 U76       0.050700
     23 C25        -19.7250    -6.6390     8.7420 cx         1 U76      -0.135900
     24 O26        -16.8120    -3.6370     9.7690 o          1 U76      -0.595100
     25 O27        -20.0370    -2.5810    14.3940 o          1 U76      -0.599100
     26 C30        -19.2720     0.7570    18.1680 c3         1 U76      -0.091600
     27 C31        -21.7270     0.1770    18.5180 c3         1 U76      -0.091600
     28 N32        -21.0920     3.6610    15.2330 ns         1 U76      -0.491900
     29 C33        -21.5660     4.9070    15.5140 c          1 U76       0.625100
     30 O34        -21.3020     5.1850    16.8200 os         1 U76      -0.462100
     31 C35        -21.6080     6.5040    17.3120 c3         1 U76       0.223900
     32 C36        -20.6100     7.5040    16.7300 ca         1 U76      -0.058300
     33 C37        -21.0520     8.5910    15.9480 ca         1 U76      -0.157000
     34 C38        -20.1260     9.4990    15.4100 ca         1 U76       0.197500
     35 F39        -20.5600    10.5350    14.6610 f          1 U76      -0.174000
     36 C40        -18.7540     9.3380    15.6440 ca         1 U76      -0.185000
     37 C41        -18.3100     8.2600    16.4210 ca         1 U76       0.197500
     38 F42        -16.9890     8.0970    16.6490 f          1 U76      -0.174000
     39 C43        -19.2280     7.3470    16.9630 ca         1 U76      -0.157000
     40 O44        -22.1330     5.6380    14.7190 o          1 U76      -0.524000
     41 H1         -19.4720     0.7740    11.2930 hc         1 U76       0.060700
     42 H2         -21.8320     1.8890    10.5670 h1         1 U76       0.044200
     43 H3         -22.6590     1.0060     9.2570 h1         1 U76       0.044200
     44 H4         -19.9980    -4.5270     8.0660 hc         1 U76       0.077200
     45 H5         -18.9960    -5.5550     6.9290 hc         1 U76       0.077200
     46 H6         -21.5650    -0.7160    15.9370 hc         1 U76       0.060700
     47 H7         -20.3180    -1.5330    16.8500 hc         1 U76       0.060700
     48 H8         -17.7710     3.3700    12.9320 hc         1 U76       0.085200
     49 H9         -18.4630     3.7580    14.5030 hc         1 U76       0.085200
     50 H10        -20.0640     4.5900    12.8750 hc         1 U76       0.068200
     51 H11        -20.0910     3.0590    12.0160 hc         1 U76       0.068200
     52 H12        -22.1040     3.2230    13.4490 h1         1 U76       0.092700
     53 H13        -21.1680     0.9880    13.1130 h1         1 U76       0.066700
     54 H14        -21.7940     1.1210    14.7550 h1         1 U76       0.066700
     55 H15        -18.5460    -0.3740    15.6940 h1         1 U76       0.094700
     56 H16        -18.4690    -0.2980    12.9390 hn         1 U76       0.341500
     57 H17        -19.9660    -2.4490    11.6670 h1         1 U76       0.084700
     58 H18        -18.8270    -1.7280     9.6220 hc         1 U76       0.079700
     59 H19        -17.6560    -0.8020    10.5450 hc         1 U76       0.079700
     60 H20        -21.6000    -0.4700    11.3000 hc         1 U76       0.066700
     61 H21        -21.3440    -1.0200     9.6410 hc         1 U76       0.066700
     62 H22        -20.7080     2.0470     8.0110 hn         1 U76       0.330500
     63 H23        -16.9920    -2.8430    12.2070 h1         1 U76       0.075700
     64 H24        -19.0380    -3.6250    13.5230 ho         1 U76       0.463000
     65 H26        -17.5180    -6.2590     8.8560 h1         1 U76       0.092700
     66 H27        -20.5810    -6.5830     9.4100 hc         1 U76       0.077200
     67 H28        -19.5750    -7.6100     8.2760 hc         1 U76       0.077200
     68 H29        -20.9340     1.4590    17.0100 hc         1 U76       0.043700
     69 H30        -19.3710     1.5020    18.9670 hc         1 U76       0.037367
     70 H31        -18.8880    -0.1700    18.6120 hc         1 U76       0.037367
     71 H32        -18.5290     1.1340    17.4560 hc         1 U76       0.037367
     72 H33        -21.8140     0.9770    19.2630 hc         1 U76       0.037367
     73 H34        -22.7040     0.0630    18.0320 hc         1 U76       0.037367
     74 H35        -21.4930    -0.7570    19.0430 hc         1 U76       0.037367
     75 H36        -20.6410     3.1830    16.0020 hn         1 U76       0.329500
     76 H37        -21.5240     6.5250    18.4060 h1         1 U76       0.078700
     77 H38        -22.6380     6.7920    17.0590 h1         1 U76       0.078700
     78 H39        -22.1120     8.7310    15.7500 ha         1 U76       0.137500
     79 H40        -18.0410    10.0420    15.2260 ha         1 U76       0.154000
     80 H41        -18.8660     6.5140    17.5610 ha         1 U76       0.137500
     81 N22        -18.5350    -5.0360    10.2800 ns         1 U76      -0.471900
     82 C09        -19.5220    -1.4890    14.1940 c          1 U76       0.570100
     83 C29        -20.6350     0.5140    17.4780 c3         1 U76      -0.060700
     84 H25        -19.1880    -5.2660    11.0220 hn         1 U76       0.338500
     85 O01        -17.4170     1.1050    14.0540 o          1 U76      -0.581000
@<TRIPOS>BOND
     1     1     3 1   
     2     1    16 1   
     3     1    17 1   
     4     1    41 1   
     5     2    17 1   
     6     2    18 1   
     7     2    42 1   
     8     2    43 1   
     9     3    18 1   
    10     3    19 2   
    11     4    20 1   
    12     4    24 2   
    13     4    81 1   
    14     5    22 1   
    15     5    23 1   
    16     5    44 1   
    17     5    45 1   
    18     6    13 1   
    19     6    46 1   
    20     6    47 1   
    21     6    83 1   
    22     7     8 1   
    23     7    12 1   
    24     7    85 2   
    25     8     9 1   
    26     8    48 1   
    27     8    49 1   
    28     9    10 1   
    29     9    50 1   
    30     9    51 1   
    31    10    11 1   
    32    10    28 1   
    33    10    52 1   
    34    11    12 1   
    35    11    53 1   
    36    11    54 1   
    37    12    13 1   
    38    13    55 1   
    39    13    82 1   
    40    14    15 1   
    41    14    56 1   
    42    14    82 1   
    43    15    16 1   
    44    15    20 1   
    45    15    57 1   
    46    16    58 1   
    47    16    59 1   
    48    17    60 1   
    49    17    61 1   
    50    18    62 1   
    51    20    21 1   
    52    20    63 1   
    53    21    64 1   
    54    22    23 1   
    55    22    65 1   
    56    22    81 1   
    57    23    66 1   
    58    23    67 1   
    59    25    82 2   
    60    26    69 1   
    61    26    70 1   
    62    26    71 1   
    63    26    83 1   
    64    27    72 1   
    65    27    73 1   
    66    27    74 1   
    67    27    83 1   
    68    28    29 1   
    69    28    75 1   
    70    29    30 1   
    71    29    40 2   
    72    30    31 1   
    73    31    32 1   
    74    31    76 1   
    75    31    77 1   
    76    32    33 ar  
    77    32    39 ar  
    78    33    34 ar  
    79    33    78 1   
    80    34    35 1   
    81    34    36 ar  
    82    36    37 ar  
    83    36    79 1   
    84    37    38 1   
    85    37    39 ar  
    86    39    80 1   
    87    68    83 1   
    88    81    84 1   
@<TRIPOS>SUBSTRUCTURE
     1 U76         1 TEMP              0 ****  ****    0 ROOT
