@<TRIPOS>MOLECULE
U77
   66    68     1     0     0
SMALL
bcc


@<TRIPOS>ATOM
      1 C01        -25.0640     3.4850    15.8190 ca         1 U77      -0.030000
      2 C02        -24.4820     4.1280    14.7420 ca         1 U77      -0.148500
      3 C03        -25.2610     4.6590    13.7140 ca         1 U77      -0.008300
      4 C04        -26.6450     4.5230    13.7850 ca         1 U77      -0.148500
      5 C05        -27.2460     3.8860    14.8600 ca         1 U77      -0.030000
      6 C06        -26.4480     3.3750    15.8720 ca         1 U77      -0.280500
      7 C07        -24.6220     5.4440    12.6070 c3         1 U77      -0.070100
      8 C08        -24.6490     6.9340    12.9630 c3         1 U77       0.108000
      9 C10        -24.4850     8.2830    10.9460 c          1 U77       0.660100
     10 C11        -22.5010     7.9890    12.3930 c3         1 U77       0.082700
     11 C13        -23.6600     9.2760    10.1300 c3         1 U77       0.105800
     12 C14        -22.3370     9.1280    13.3450 cc         1 U77       0.217000
     13 C16        -24.8320    11.3440     9.8180 c3         1 U77       0.183800
     14 C17        -23.8260    10.2540     7.9270 c3         1 U77       0.200800
     15 C18        -25.7450    11.2230    11.0380 c3         1 U77      -0.042100
     16 C19        -26.0480    12.5770    11.6160 ca         1 U77      -0.064300
     17 C20        -27.2030    13.2710    11.2650 ca         1 U77      -0.126500
     18 C21        -27.4630    14.5330    11.7860 ca         1 U77      -0.134500
     19 C22        -26.5660    15.1210    12.6670 ca         1 U77      -0.144000
     20 C23        -25.4080    14.4400    13.0210 ca         1 U77      -0.134500
     21 C24        -25.1540    13.1800    12.4990 ca         1 U77      -0.126500
     22 C25        -23.7860     8.9790     7.1000 c3         1 U77      -0.209400
     23 C26        -23.2180     9.9700    13.9380 cd         1 U77      -0.256300
     24 C27        -22.4390    10.8460    14.7580 cd         1 U77      -0.268300
     25 C28        -21.1520    10.4650    14.5950 cc         1 U77       0.218600
     26 C34        -25.1840     8.4110     6.7880 c          1 U77       0.942600
     27 N09        -23.8880     7.7680    12.0530 n          1 U77      -0.503800
     28 N15        -24.4580    10.0710     9.2280 n3         1 U77      -0.680600
     29 N33        -26.9020     0.9960    16.9310 n8         1 U77      -0.891700
     30 O12        -25.6160     7.9630    10.6280 o          1 U77      -0.523100
     31 O29        -21.0810     9.4210    13.7380 os         1 U77      -0.335800
     32 O31        -28.6080     2.9230    17.2720 o          1 U77      -0.622800
     33 O32        -26.4100     2.8850    18.4640 o          1 U77      -0.622800
     34 O35        -26.0310     9.2260     6.3660 o          1 U77      -0.841800
     35 O36        -25.3490     7.1860     6.9550 o          1 U77      -0.841800
     36 S30        -27.1900     2.5900    17.2710 sy         1 U77       1.267200
     37 H011       -24.4420     3.0820    16.6080 ha         1 U77       0.149500
     38 H021       -23.4040     4.2250    14.7000 ha         1 U77       0.144000
     39 H041       -27.2650     4.9260    12.9930 ha         1 U77       0.144000
     40 H051       -28.3230     3.7980    14.9010 ha         1 U77       0.149500
     41 H072       -25.1480     5.2830    11.6650 hc         1 U77       0.071200
     42 H071       -23.5890     5.1190    12.4680 hc         1 U77       0.071200
     43 H082       -24.2330     7.0750    13.9630 h1         1 U77       0.052700
     44 H081       -25.6800     7.2850    13.0020 h1         1 U77       0.052700
     45 H112       -22.1080     7.0710    12.8400 h1         1 U77       0.063200
     46 H111       -21.8990     8.1430    11.4950 h1         1 U77       0.063200
     47 H132       -22.9310     8.6870     9.5640 h1         1 U77       0.042200
     48 H131       -23.0620     9.9110    10.7990 h1         1 U77       0.042200
     49 H162       -23.9420    11.9320    10.1050 h1         1 U77       0.025200
     50 H161       -25.3580    11.9280     9.0590 h1         1 U77       0.025200
     51 H172       -22.8100    10.6720     8.0250 h1         1 U77       0.014700
     52 H171       -24.4110    10.9930     7.3790 h1         1 U77       0.014700
     53 H182       -26.6660    10.7130    10.7520 hc         1 U77       0.060700
     54 H181       -25.2690    10.6160    11.8110 hc         1 U77       0.060700
     55 H201       -27.9110    12.8160    10.5810 ha         1 U77       0.135500
     56 H211       -28.3700    15.0540    11.5060 ha         1 U77       0.120000
     57 H221       -26.7690    16.1020    13.0780 ha         1 U77       0.118000
     58 H231       -24.7040    14.8890    13.7100 ha         1 U77       0.120000
     59 H241       -24.2510    12.6520    12.7870 ha         1 U77       0.135500
     60 H252       -23.1590     8.2190     7.5720 hc         1 U77       0.014700
     61 H251       -23.2900     9.2230     6.1530 hc         1 U77       0.014700
     62 H261       -24.2900     9.9680    13.8220 ha         1 U77       0.171000
     63 H271       -22.7960    11.6490    15.3800 ha         1 U77       0.156000
     64 H281       -20.2190    10.8220    14.9990 h4         1 U77       0.045100
     65 H332       -26.9970     0.4150    17.7600 hn         1 U77       0.413300
     66 H331       -27.4930     0.6410    16.1850 hn         1 U77       0.413300
@<TRIPOS>BOND
     1     1     2 ar  
     2     1     6 ar  
     3     1    37 1   
     4     2     3 ar  
     5     2    38 1   
     6     3     4 ar  
     7     3     7 1   
     8     4     5 ar  
     9     4    39 1   
    10     5     6 ar  
    11     5    40 1   
    12     6    36 1   
    13     7     8 1   
    14     7    41 1   
    15     7    42 1   
    16     8    27 1   
    17     8    43 1   
    18     8    44 1   
    19     9    11 1   
    20     9    27 1   
    21     9    30 2   
    22    10    12 1   
    23    10    27 1   
    24    10    45 1   
    25    10    46 1   
    26    11    28 1   
    27    11    47 1   
    28    11    48 1   
    29    12    23 2   
    30    12    31 1   
    31    13    15 1   
    32    13    28 1   
    33    13    49 1   
    34    13    50 1   
    35    14    22 1   
    36    14    28 1   
    37    14    51 1   
    38    14    52 1   
    39    15    16 1   
    40    15    53 1   
    41    15    54 1   
    42    16    17 ar  
    43    16    21 ar  
    44    17    18 ar  
    45    17    55 1   
    46    18    19 ar  
    47    18    56 1   
    48    19    20 ar  
    49    19    57 1   
    50    20    21 ar  
    51    20    58 1   
    52    21    59 1   
    53    22    26 1   
    54    22    60 1   
    55    22    61 1   
    56    23    24 1   
    57    23    62 1   
    58    24    25 2   
    59    24    63 1   
    60    25    31 1   
    61    25    64 1   
    62    26    34 1   
    63    26    35 1   
    64    29    36 1   
    65    29    65 1   
    66    29    66 1   
    67    32    36 2   
    68    33    36 2   
@<TRIPOS>SUBSTRUCTURE
     1 U77         1 TEMP              0 ****  ****    0 ROOT
