@<TRIPOS>MOLECULE
U77
   66    68     1     0     0
SMALL
No Charge or Current Charge


@<TRIPOS>ATOM
      1 C01        -25.3250     3.4850    16.2900 ca         1 U77      -0.012000
      2 C02        -24.6060     4.1970    15.3150 ca         1 U77      -0.130500
      3 C03        -25.2240     4.5810    14.1110 ca         1 U77      -0.008300
      4 C04        -26.5740     4.2490    13.8920 ca         1 U77      -0.130500
      5 C05        -27.3000     3.5370    14.8620 ca         1 U77      -0.012000
      6 C06        -26.6770     3.1520    16.0670 ca         1 U77      -0.280500
      7 C07        -24.4460     5.3590    13.0600 c3         1 U77      -0.070100
      8 C08        -24.6270     6.8790    13.2210 c3         1 U77       0.108000
      9 C10        -24.4840     8.1050    11.0190 c          1 U77       0.593100
     10 C11        -22.4610     8.0030    12.5720 c3         1 U77       0.082700
     11 C13        -23.6540     8.9420     9.9810 c3         1 U77       0.105800
     12 C14        -22.3410     9.4060    13.1110 cc         1 U77       0.107300
     13 C16        -24.6050    11.2560     9.9230 c3         1 U77       0.183800
     14 C17        -23.7010    10.2780     7.8680 c3         1 U77       0.200800
     15 C18        -25.4770    11.1410    11.1960 c3         1 U77      -0.042100
     16 C19        -25.8470    12.5010    11.7770 ca         1 U77      -0.064300
     17 C20        -27.1970    12.8950    11.8700 ca         1 U77      -0.108500
     18 C21        -27.5360    14.1470    12.4130 ca         1 U77      -0.116500
     19 C22        -26.5280    15.0130    12.8670 ca         1 U77      -0.126000
     20 C23        -25.1800    14.6260    12.7800 ca         1 U77      -0.116500
     21 C24        -24.8410    13.3750    12.2380 ca         1 U77      -0.108500
     22 C25        -23.7560     9.1620     6.8000 c3         1 U77      -0.209400
     23 C26        -23.0470    10.0590    14.0840 cd         1 U77      -0.173000
     24 C27        -22.5220    11.3640    14.1680 cd         1 U77      -0.185000
     25 C28        -21.5170    11.4550    13.2450 cc         1 U77       0.108900
     26 C34        -25.1940     8.9860     6.2920 c          1 U77       0.732000
     27 N09        -23.8620     7.6570    12.2180 n          1 U77      -0.436800
     28 N15        -24.3650     9.9940     9.1670 n3         1 U77      -0.680600
     29 N33        -27.2540     0.6920    16.9080 n8         1 U77      -1.002100
     30 O12        -25.6550     7.8150    10.7960 o          1 U77      -0.523100
     31 O29        -21.3910    10.2530    12.5840 os         1 U77      -0.247000
     32 O31        -29.0290     2.3550    17.0630 o          1 U77      -0.552000
     33 O32        -26.9980     2.4290    18.6350 o          1 U77      -0.552000
     34 O35        -25.5850     9.7380     5.4110 o          1 U77      -0.736500
     35 O36        -25.8760     8.0860     6.7600 o          1 U77      -0.736500
     36 S30        -27.5940     2.2400    17.3130 sy         1 U77       1.125600
     37 H011       -24.8280     3.1940    17.2150 ha         1 U77       0.131500
     38 H021       -23.5640     4.4510    15.4980 ha         1 U77       0.126000
     39 H041       -27.0640     4.5450    12.9670 ha         1 U77       0.126000
     40 H051       -28.3440     3.2920    14.6730 ha         1 U77       0.131500
     41 H072       -24.7720     5.0650    12.0550 hc         1 U77       0.071200
     42 H071       -23.3790     5.1140    13.1200 hc         1 U77       0.071200
     43 H082       -24.2930     7.1700    14.2260 h1         1 U77       0.052700
     44 H081       -25.6950     7.1290    13.1590 h1         1 U77       0.052700
     45 H112       -22.0950     7.3060    13.3370 h1         1 U77       0.063200
     46 H111       -21.8130     7.8800    11.6950 h1         1 U77       0.063200
     47 H132       -23.1950     8.1870     9.3330 h1         1 U77       0.042200
     48 H131       -22.8200     9.4270    10.4960 h1         1 U77       0.042200
     49 H162       -23.6420    11.7060    10.2000 h1         1 U77       0.025200
     50 H161       -25.1080    11.9740     9.2610 h1         1 U77       0.025200
     51 H172       -22.6460    10.5200     8.0550 h1         1 U77       0.014700
     52 H171       -24.1470    11.1750     7.4160 h1         1 U77       0.014700
     53 H182       -26.3820    10.5720    10.9510 hc         1 U77       0.060700
     54 H181       -24.9400    10.5680    11.9580 hc         1 U77       0.060700
     55 H201       -27.9860    12.2320    11.5220 ha         1 U77       0.117500
     56 H211       -28.5800    14.4450    12.4800 ha         1 U77       0.102000
     57 H221       -26.7910    15.9810    13.2870 ha         1 U77       0.100000
     58 H231       -24.3990    15.2950    13.1330 ha         1 U77       0.102000
     59 H241       -23.7950    13.0850    12.1760 ha         1 U77       0.117500
     60 H252       -23.3710     8.2340     7.2360 hc         1 U77       0.014700
     61 H251       -23.1260     9.5450     5.9880 hc         1 U77       0.014700
     62 H261       -23.8610     9.6460    14.6710 ha         1 U77       0.153000
     63 H271       -22.8500    12.1550    14.8350 ha         1 U77       0.138000
     64 H281       -20.8520    12.2620    12.9670 h4         1 U77       0.045100
     65 H332       -28.1910     0.3060    16.8260 hn         1 U77       0.468500
     66 H331       -26.9430     0.7860    15.9440 hn         1 U77       0.468500
@<TRIPOS>BOND
     1     1     2 ar  
     2     1     6 ar  
     3     1    37 1   
     4     2     3 ar  
     5     2    38 1   
     6     3     4 ar  
     7     3     7 1   
     8     4     5 ar  
     9     4    39 1   
    10     5     6 ar  
    11     5    40 1   
    12     6    36 1   
    13     7     8 1   
    14     7    41 1   
    15     7    42 1   
    16     8    27 1   
    17     8    43 1   
    18     8    44 1   
    19     9    11 1   
    20     9    27 1   
    21     9    30 2   
    22    10    12 1   
    23    10    27 1   
    24    10    45 1   
    25    10    46 1   
    26    11    28 1   
    27    11    47 1   
    28    11    48 1   
    29    12    23 2   
    30    12    31 1   
    31    13    15 1   
    32    13    28 1   
    33    13    49 1   
    34    13    50 1   
    35    14    22 1   
    36    14    28 1   
    37    14    51 1   
    38    14    52 1   
    39    15    16 1   
    40    15    53 1   
    41    15    54 1   
    42    16    17 ar  
    43    16    21 ar  
    44    17    18 ar  
    45    17    55 1   
    46    18    19 ar  
    47    18    56 1   
    48    19    20 ar  
    49    19    57 1   
    50    20    21 ar  
    51    20    58 1   
    52    21    59 1   
    53    22    26 1   
    54    22    60 1   
    55    22    61 1   
    56    23    24 1   
    57    23    62 1   
    58    24    25 2   
    59    24    63 1   
    60    25    31 1   
    61    25    64 1   
    62    26    34 1   
    63    26    35 1   
    64    29    36 1   
    65    29    65 1   
    66    29    66 1   
    67    32    36 2   
    68    33    36 2   
@<TRIPOS>SUBSTRUCTURE
     1 U77         1 TEMP              0 ****  ****    0 ROOT
