@<TRIPOS>MOLECULE
U78
   28    28     1     0     0
SMALL
No Charge or Current Charge


@<TRIPOS>ATOM
      1 C1          -2.3260   -28.1110    25.2500 c3         1 U78      -0.181100
      2 C2          -3.6350   -27.5950    25.8320 c          1 U78       0.599100
      3 O1          -4.5450   -28.3390    26.1660 o          1 U78      -0.609100
      4 N1          -3.7140   -26.2260    25.9480 ns         1 U78      -0.509900
      5 C3          -4.8610   -25.4980    26.5010 c3         1 U78       0.104000
      6 C4          -4.8970   -25.5400    28.0420 c3         1 U78      -0.054100
      7 C5          -6.0930   -24.7740    28.6080 ca         1 U78      -0.082300
      8 C6          -5.9360   -23.4040    28.9020 ca         1 U78      -0.108000
      9 C7          -7.0050   -22.6550    29.4180 ca         1 U78      -0.115000
     10 C8          -8.2440   -23.2690    29.6450 ca         1 U78      -0.107000
     11 C9          -8.4140   -24.6320    29.3540 ca         1 U78      -0.112000
     12 C10         -7.3480   -25.3950    28.8340 ca         1 U78      -0.061300
     13 C11         -7.5790   -26.8740    28.5310 c3         1 U78      -0.054800
     14 H1          -2.1530   -27.6310    24.2800 hc         1 U78       0.059367
     15 H2          -1.4930   -27.7300    25.8510 hc         1 U78       0.059367
     16 H3          -2.3010   -29.2040    25.1700 hc         1 U78       0.059367
     17 H4          -2.9080   -25.6960    25.6380 hn         1 U78       0.310500
     18 H5          -4.8040   -24.4530    26.1680 h1         1 U78       0.056200
     19 H6          -5.7860   -25.9270    26.0950 h1         1 U78       0.056200
     20 H7          -4.9000   -26.5820    28.3810 hc         1 U78       0.053200
     21 H8          -3.9630   -25.1100    28.4250 hc         1 U78       0.053200
     22 H9          -4.9800   -22.9160    28.7280 ha         1 U78       0.106000
     23 H10         -6.8720   -21.5990    29.6420 ha         1 U78       0.111000
     24 H11         -9.0740   -22.6910    30.0460 ha         1 U78       0.111000
     25 H12         -9.3810   -25.0960    29.5350 ha         1 U78       0.111000
     26 H13         -6.9900   -27.5100    29.2020 hc         1 U78       0.048367
     27 H14         -8.6320   -27.1560    28.6560 hc         1 U78       0.048367
     28 H15         -7.3010   -27.1200    27.5000 hc         1 U78       0.048367
@<TRIPOS>BOND
     1     1     2 1   
     2     1    14 1   
     3     1    15 1   
     4     1    16 1   
     5     2     3 2   
     6     2     4 1   
     7     4     5 1   
     8     4    17 1   
     9     5     6 1   
    10     5    18 1   
    11     5    19 1   
    12     6     7 1   
    13     6    20 1   
    14     6    21 1   
    15     7     8 ar  
    16     7    12 ar  
    17     8     9 ar  
    18     8    22 1   
    19     9    10 ar  
    20     9    23 1   
    21    10    11 ar  
    22    10    24 1   
    23    11    12 ar  
    24    11    25 1   
    25    12    13 1   
    26    13    26 1   
    27    13    27 1   
    28    13    28 1   
@<TRIPOS>SUBSTRUCTURE
     1 U78         1 TEMP              0 ****  ****    0 ROOT
