@<TRIPOS>MOLECULE
U78
   28    28     1     0     0
SMALL
abcg2


@<TRIPOS>ATOM
      1 C1          -2.5010   -28.1110    25.2110 c3         1 U78      -0.181100
      2 C2          -3.7530   -27.4860    25.7750 c          1 U78       0.599100
      3 O1          -4.7680   -28.1440    25.9650 o          1 U78      -0.609100
      4 N1          -3.6810   -26.1680    26.0340 ns         1 U78      -0.509900
      5 C3          -4.7740   -25.4140    26.6010 c3         1 U78       0.104000
      6 C4          -4.8410   -25.5020    28.1310 c3         1 U78      -0.054100
      7 C5          -6.0470   -24.7760    28.6610 ca         1 U78      -0.082300
      8 C6          -5.9440   -23.4280    28.9910 ca         1 U78      -0.108000
      9 C7          -7.0400   -22.7050    29.4390 ca         1 U78      -0.115000
     10 C8          -8.2680   -23.3380    29.5630 ca         1 U78      -0.107000
     11 C9          -8.3820   -24.6830    29.2380 ca         1 U78      -0.112000
     12 C10         -7.2890   -25.4180    28.7840 ca         1 U78      -0.061300
     13 C11         -7.4510   -26.8770    28.4580 c3         1 U78      -0.054800
     14 H1          -2.7150   -28.5150    24.2210 hc         1 U78       0.059367
     15 H2          -1.6640   -27.4210    25.1270 hc         1 U78       0.059367
     16 H3          -2.1980   -28.9470    25.8410 hc         1 U78       0.059367
     17 H4          -2.8030   -25.6940    25.9000 hn         1 U78       0.310500
     18 H5          -4.6510   -24.3730    26.3020 h1         1 U78       0.056200
     19 H6          -5.7100   -25.7580    26.1610 h1         1 U78       0.056200
     20 H7          -4.8530   -26.5500    28.4320 hc         1 U78       0.053200
     21 H8          -3.9310   -25.0640    28.5480 hc         1 U78       0.053200
     22 H9          -4.9810   -22.9370    28.8950 ha         1 U78       0.106000
     23 H10         -6.9340   -21.6580    29.6910 ha         1 U78       0.111000
     24 H11         -9.1340   -22.7910    29.9130 ha         1 U78       0.111000
     25 H12         -9.3420   -25.1750    29.3370 ha         1 U78       0.111000
     26 H13         -6.8850   -27.5050    29.1490 hc         1 U78       0.048367
     27 H14         -8.4960   -27.1770    28.5240 hc         1 U78       0.048367
     28 H15         -7.0990   -27.1170    27.4550 hc         1 U78       0.048367
@<TRIPOS>BOND
     1     1     2 1   
     2     1    14 1   
     3     1    15 1   
     4     1    16 1   
     5     2     3 2   
     6     2     4 1   
     7     4     5 1   
     8     4    17 1   
     9     5     6 1   
    10     5    18 1   
    11     5    19 1   
    12     6     7 1   
    13     6    20 1   
    14     6    21 1   
    15     7     8 ar  
    16     7    12 ar  
    17     8     9 ar  
    18     8    22 1   
    19     9    10 ar  
    20     9    23 1   
    21    10    11 ar  
    22    10    24 1   
    23    11    12 ar  
    24    11    25 1   
    25    12    13 1   
    26    13    26 1   
    27    13    27 1   
    28    13    28 1   
@<TRIPOS>SUBSTRUCTURE
     1 U78         1 TEMP              0 ****  ****    0 ROOT
