@<TRIPOS>MOLECULE
U79
   97   104     1     0     0
SMALL
abcg2


@<TRIPOS>ATOM
      1 C03          6.8800   -10.7240    24.2140 ca         1 U79      -0.317500
      2 C04          6.3400   -11.9070    24.7130 ca         1 U79      -0.020500
      3 C05          4.9640   -12.0610    24.7320 ca         1 U79      -0.111500
      4 C06          6.0620    -9.7080    23.7300 ca         1 U79      -0.020500
      5 C07          4.6840    -9.8800    23.7550 ca         1 U79      -0.111500
      6 C08          4.1220   -11.0500    24.2600 ca         1 U79      -0.058300
      7 C09          2.6200   -11.2180    24.3300 c3         1 U79       0.147300
      8 C11          2.0210   -10.0150    26.3780 c          1 U79       0.605700
      9 C12          1.6010   -10.0930    27.8130 ca         1 U79      -0.160600
     10 C13          1.6020   -11.2730    28.5590 ca         1 U79      -0.074500
     11 C14          1.1980   -11.2670    29.8860 ca         1 U79      -0.107500
     12 C15          1.2180    -8.9090    28.4410 ca         1 U79      -0.074500
     13 C16          0.8200    -8.9010    29.7660 ca         1 U79      -0.107500
     14 C17          0.7960   -10.0840    30.5120 cp         1 U79      -0.010000
     15 C18          0.3390   -10.0800    31.9170 cp         1 U79      -0.034000
     16 C19         -0.4380   -11.1300    32.4170 ca         1 U79      -0.104500
     17 C20         -0.9100   -11.1090    33.7190 ca         1 U79      -0.075500
     18 C21         -0.6170   -10.0350    34.5630 ca         1 U79      -0.129900
     19 C22         -1.1290   -10.0170    35.9560 ce         1 U79       0.556500
     20 C24         -1.7010   -11.1590    37.9520 c3         1 U79       0.106200
     21 C25         -2.0250   -12.5880    38.3540 c3         1 U79      -0.114400
     22 C26         -3.1530   -13.1570    37.5310 c          1 U79       0.596100
     23 C28         -4.1600   -15.1570    36.7740 c3         1 U79       0.152900
     24 C30         -0.6570   -10.5530    38.8280 cc         1 U79       0.392800
     25 C33          0.6910    -8.9930    39.5750 cc         1 U79       0.417800
     26 C34          1.3730    -7.6920    39.7760 c3         1 U79      -0.128400
     27 C36         -1.0070    -8.3540    37.8120 cd         1 U79      -0.120200
     28 C37         -1.4560    -8.7050    36.5570 cc         1 U79      -0.203900
     29 C38         -2.1870    -7.6310    35.9310 cc         1 U79      -0.057300
     30 C39         -2.9110    -7.7300    34.6200 c3         1 U79      -0.035800
     31 C40         -2.2480    -6.5130    36.7190 cd         1 U79      -0.199300
     32 C41         -2.9310    -5.2090    36.4410 c3         1 U79      -0.021800
     33 C43          0.1780    -8.9940    34.0770 ca         1 U79      -0.075500
     34 C44          0.6500    -9.0190    32.7740 ca         1 U79      -0.104500
     35 C47          8.2050    -8.5330    26.1340 ca         1 U79       0.210000
     36 C48          8.7320    -7.3270    25.7200 ca         1 U79      -0.049000
     37 C49          8.0840    -6.1150    25.9970 ca         1 U79      -0.131000
     38 C50          6.8910    -6.0490    26.7040 ca         1 U79      -0.013300
     39 C51          6.2210    -4.7350    26.9910 c3         1 U79      -0.051800
     40 C52          6.3410    -7.2730    27.1280 ca         1 U79      -0.054800
     41 C53          6.9920    -8.4930    26.8310 ca         1 U79      -0.069200
     42 C55          5.1200    -9.0130    27.9530 cc         1 U79      -0.095100
     43 C56          5.1370    -7.6350    27.8500 cd         1 U79      -0.052900
     44 C57          4.1340    -6.7880    28.3540 ch         1 U79       0.338700
     45 N10          2.1260   -11.1750    25.6980 ns         1 U79      -0.509900
     46 N23         -1.2020   -11.1370    36.5740 n2         1 U79      -0.574900
     47 N31          0.1240   -11.1010    39.7140 nd         1 U79      -0.339000
     48 N32          0.9770   -10.1130    40.1880 nd         1 U79      -0.352000
     49 N35         -0.3420    -9.2150    38.6900 na         1 U79      -0.267800
     50 N46          8.8640    -9.7610    25.8230 nu         1 U79      -0.873100
     51 N54          6.2230    -9.5170    27.3480 na         1 U79      -0.216700
     52 N58          3.3140    -6.0920    28.7700 n1         1 U79      -0.487000
     53 O01          9.3050   -11.7220    24.3790 o          1 U79      -0.533500
     54 O27         -3.0950   -14.4910    37.4830 os         1 U79      -0.444100
     55 O29         -4.0280   -12.5080    37.0030 o          1 U79      -0.496000
     56 O45          2.2590    -8.9320    25.8430 o          1 U79      -0.595100
     57 O59          8.9880    -9.4740    23.3380 o          1 U79      -0.533500
     58 S02          8.6210   -10.4520    24.3310 sy         1 U79       1.167600
     59 S42         -1.4360    -6.7440    38.2350 ss         1 U79       0.233000
     60 H041         6.9910   -12.6880    25.0840 ha         1 U79       0.138500
     61 H051         4.5360   -12.9760    25.1190 ha         1 U79       0.124000
     62 H061         6.4940    -8.7960    23.3470 ha         1 U79       0.138500
     63 H071         4.0370    -9.0930    23.3900 ha         1 U79       0.124000
     64 H091         2.1310   -10.4350    23.7540 h1         1 U79       0.067200
     65 H092         2.3300   -12.1810    23.9140 h1         1 U79       0.067200
     66 H131         1.9370   -12.2080    28.1310 ha         1 U79       0.126500
     67 H141         1.2170   -12.1900    30.4480 ha         1 U79       0.125000
     68 H151         1.2270    -7.9950    27.8710 ha         1 U79       0.126500
     69 H161         0.5100    -7.9730    30.2240 ha         1 U79       0.125000
     70 H191        -0.7070   -11.9540    31.7690 ha         1 U79       0.120000
     71 H201        -1.5320   -11.9130    34.0860 ha         1 U79       0.129000
     72 H241        -2.6060   -10.5430    38.0310 h1         1 U79       0.084700
     73 H251        -2.3390   -12.6230    39.4010 hc         1 U79       0.095200
     74 H252        -1.1480   -13.2230    38.2570 hc         1 U79       0.095200
     75 H281        -3.9370   -16.2150    36.8460 h1         1 U79       0.049700
     76 H282        -5.1190   -14.9360    37.2410 h1         1 U79       0.049700
     77 H283        -4.1710   -14.8380    35.7330 h1         1 U79       0.049700
     78 H343         2.2660    -7.8550    40.3800 hc         1 U79       0.065367
     79 H341         1.6590    -7.2470    38.8230 hc         1 U79       0.065367
     80 H342         0.7310    -6.9870    40.2990 hc         1 U79       0.065367
     81 H392        -3.8320    -8.3100    34.7330 hc         1 U79       0.053367
     82 H391        -3.1840    -6.7400    34.2560 hc         1 U79       0.053367
     83 H393        -2.3090    -8.2150    33.8550 hc         1 U79       0.053367
     84 H411        -2.6550    -4.4570    37.1790 hc         1 U79       0.052367
     85 H413        -2.6520    -4.8280    35.4540 hc         1 U79       0.052367
     86 H412        -4.0170    -5.3220    36.4600 hc         1 U79       0.052367
     87 H431         0.4250    -8.1610    34.7210 ha         1 U79       0.129000
     88 H441         1.2720    -8.2090    32.4180 ha         1 U79       0.120000
     89 H481         9.6620    -7.3320    25.1710 ha         1 U79       0.142000
     90 H491         8.5310    -5.1990    25.6480 ha         1 U79       0.122000
     91 H512         5.2640    -4.6480    26.4550 hc         1 U79       0.052367
     92 H513         6.0000    -4.6230    28.0540 hc         1 U79       0.052367
     93 H511         6.8590    -3.9040    26.6890 hc         1 U79       0.052367
     94 H551         4.3880    -9.6570    28.4130 h4         1 U79       0.229000
     95 H101         1.9130   -12.0480    26.1480 hn         1 U79       0.317500
     96 H461         8.8550   -10.4680    26.5490 hn         1 U79       0.480000
     97 H541         6.4200   -10.5030    27.2670 hn         1 U79       0.351000
@<TRIPOS>BOND
     1     1     2 ar  
     2     1     4 ar  
     3     1    58 1   
     4     2     3 ar  
     5     2    60 1   
     6     3     6 ar  
     7     3    61 1   
     8     4     5 ar  
     9     4    62 1   
    10     5     6 ar  
    11     5    63 1   
    12     6     7 1   
    13     7    45 1   
    14     7    64 1   
    15     7    65 1   
    16     8     9 1   
    17     8    45 1   
    18     8    56 2   
    19     9    10 ar  
    20     9    12 ar  
    21    10    11 ar  
    22    10    66 1   
    23    11    14 ar  
    24    11    67 1   
    25    12    13 ar  
    26    12    68 1   
    27    13    14 ar  
    28    13    69 1   
    29    14    15 1   
    30    15    16 ar  
    31    15    34 ar  
    32    16    17 ar  
    33    16    70 1   
    34    17    18 ar  
    35    17    71 1   
    36    18    19 1   
    37    18    33 ar  
    38    19    28 1   
    39    19    46 2   
    40    20    21 1   
    41    20    24 1   
    42    20    46 1   
    43    20    72 1   
    44    21    22 1   
    45    21    73 1   
    46    21    74 1   
    47    22    54 1   
    48    22    55 2   
    49    23    54 1   
    50    23    75 1   
    51    23    76 1   
    52    23    77 1   
    53    24    47 2   
    54    24    49 1   
    55    25    26 1   
    56    25    48 2   
    57    25    49 1   
    58    26    78 1   
    59    26    79 1   
    60    26    80 1   
    61    27    28 2   
    62    27    49 1   
    63    27    59 1   
    64    28    29 1   
    65    29    30 1   
    66    29    31 2   
    67    30    81 1   
    68    30    82 1   
    69    30    83 1   
    70    31    32 1   
    71    31    59 1   
    72    32    84 1   
    73    32    85 1   
    74    32    86 1   
    75    33    34 ar  
    76    33    87 1   
    77    34    88 1   
    78    35    36 ar  
    79    35    41 ar  
    80    35    50 1   
    81    36    37 ar  
    82    36    89 1   
    83    37    38 ar  
    84    37    90 1   
    85    38    39 1   
    86    38    40 ar  
    87    39    91 1   
    88    39    92 1   
    89    39    93 1   
    90    40    41 ar  
    91    40    43 1   
    92    41    51 1   
    93    42    43 2   
    94    42    51 1   
    95    42    94 1   
    96    43    44 1   
    97    44    52 3   
    98    45    95 1   
    99    47    48 1   
   100    50    58 1   
   101    50    96 1   
   102    51    97 1   
   103    53    58 2   
   104    57    58 2   
@<TRIPOS>SUBSTRUCTURE
     1 U79         1 TEMP              0 ****  ****    0 ROOT
