@<TRIPOS>MOLECULE
U79
   97   104     1     0     0
SMALL
No Charge or Current Charge


@<TRIPOS>ATOM
      1 C03          7.1550   -10.7050    24.8210 ca         1 U79      -0.317500
      2 C04          6.6770   -12.0130    25.0410 ca         1 U79      -0.020500
      3 C05          5.3330   -12.3220    24.7720 ca         1 U79      -0.111500
      4 C06          6.2860    -9.7170    24.3170 ca         1 U79      -0.020500
      5 C07          4.9430   -10.0320    24.0530 ca         1 U79      -0.111500
      6 C08          4.4570   -11.3320    24.2850 ca         1 U79      -0.058300
      7 C09          2.9840   -11.6480    24.0840 c3         1 U79       0.147300
      8 C11          1.7430   -10.3000    25.8050 c          1 U79       0.605700
      9 C12          1.2580   -10.2810    27.2400 ca         1 U79      -0.160600
     10 C13          1.3960   -11.3960    28.1020 ca         1 U79      -0.074500
     11 C14          0.9650   -11.3250    29.4380 ca         1 U79      -0.107500
     12 C15          0.6720    -9.1060    27.7570 ca         1 U79      -0.074500
     13 C16          0.2420    -9.0420    29.0920 ca         1 U79      -0.107500
     14 C17          0.3840   -10.1470    29.9640 cp         1 U79      -0.010000
     15 C18         -0.0580   -10.0680    31.3920 cp         1 U79      -0.034000
     16 C19         -0.6130   -11.1890    32.0530 ca         1 U79      -0.104500
     17 C20         -1.0260   -11.1150    33.3950 ca         1 U79      -0.075500
     18 C21         -0.9040    -9.9100    34.1250 ca         1 U79      -0.129900
     19 C22         -1.3260    -9.8380    35.5680 ce         1 U79       0.556500
     20 C24         -1.2980   -11.0740    37.6560 c3         1 U79       0.106200
     21 C25         -1.4900   -12.5560    38.0630 c3         1 U79      -0.114400
     22 C26         -2.9270   -13.0210    37.8430 c          1 U79       0.596100
     23 C28         -4.3490   -14.3560    36.4260 c3         1 U79       0.152900
     24 C30          0.0820   -10.5140    38.0050 cc         1 U79       0.392800
     25 C33          1.6970    -9.0600    38.4230 cc         1 U79       0.417800
     26 C34          2.5450    -7.8200    38.4540 c3         1 U79      -0.128400
     27 C36         -0.3330    -8.2070    37.2530 cd         1 U79      -0.120200
     28 C37         -1.2350    -8.5490    36.2760 cc         1 U79      -0.203900
     29 C38         -2.1030    -7.4370    36.0140 cc         1 U79      -0.057300
     30 C39         -3.2150    -7.5360    34.9960 c3         1 U79      -0.035800
     31 C40         -1.8090    -6.3150    36.7660 cd         1 U79      -0.199300
     32 C41         -2.5100    -4.9790    36.7300 c3         1 U79      -0.021800
     33 C43         -0.3340    -8.7920    33.4750 ca         1 U79      -0.075500
     34 C44          0.0760    -8.8700    32.1340 ca         1 U79      -0.104500
     35 C47          7.8660    -8.4540    27.0630 ca         1 U79       0.210000
     36 C48          8.3260    -7.1580    26.7520 ca         1 U79      -0.049000
     37 C49          7.5330    -6.0210    27.0310 ca         1 U79      -0.131000
     38 C50          6.2590    -6.1570    27.6260 ca         1 U79      -0.013300
     39 C51          5.4170    -4.9220    27.9160 c3         1 U79      -0.051800
     40 C52          5.8190    -7.4640    27.9200 ca         1 U79      -0.054800
     41 C53          6.5900    -8.5680    27.6480 ca         1 U79      -0.069200
     42 C55          4.6360    -9.3590    28.5560 cc         1 U79      -0.095100
     43 C56          4.5870    -7.9710    28.5070 cd         1 U79      -0.052900
     44 C57          3.4750    -7.2300    28.9960 ch         1 U79       0.338700
     45 N10          2.2630   -11.4900    25.3480 ns         1 U79      -0.509900
     46 N23         -1.5970   -10.9300    36.2160 n2         1 U79      -0.574900
     47 N31          1.0580   -11.1470    38.6440 nd         1 U79      -0.339000
     48 N32          2.0720   -10.2430    38.8880 nd         1 U79      -0.352000
     49 N35          0.4610    -9.2030    37.8330 na         1 U79      -0.267800
     50 N46          8.6580    -9.5680    26.7910 nu         1 U79      -0.873100
     51 N54          5.8860    -9.7100    28.0090 na         1 U79      -0.216700
     52 N58          2.5850    -6.5990    29.4140 n1         1 U79      -0.487000
     53 O01          9.6230   -11.4690    25.5440 o          1 U79      -0.533500
     54 O27         -3.0430   -13.8470    36.7530 os         1 U79      -0.444100
     55 O29         -3.8570   -12.7100    38.5750 o          1 U79      -0.496000
     56 O45          1.6960    -9.3100    25.0890 o          1 U79      -0.595100
     57 O59          9.3230    -9.1690    24.4310 o          1 U79      -0.533500
     58 S02          8.8350   -10.2650    25.2730 sy         1 U79       1.167600
     59 S42         -0.4450    -6.5630    37.8730 ss         1 U79       0.233000
     60 H041         7.3310   -12.7870    25.4390 ha         1 U79       0.138500
     61 H051         4.9660   -13.3270    24.9650 ha         1 U79       0.124000
     62 H061         6.6380    -8.6980    24.1590 ha         1 U79       0.138500
     63 H071         4.2730    -9.2550    23.6920 ha         1 U79       0.124000
     64 H091         2.5530   -10.9860    23.3210 h1         1 U79       0.067200
     65 H092         2.8690   -12.6820    23.7340 h1         1 U79       0.067200
     66 H131         1.8470   -12.3240    27.7600 ha         1 U79       0.126500
     67 H141         1.1030   -12.1930    30.0790 ha         1 U79       0.125000
     68 H151         0.5510    -8.2280    27.1240 ha         1 U79       0.126500
     69 H161        -0.2100    -8.1220    29.4530 ha         1 U79       0.125000
     70 H191        -0.7400   -12.1270    31.5180 ha         1 U79       0.120000
     71 H201        -1.4510   -12.0030    33.8590 ha         1 U79       0.129000
     72 H241        -2.0210   -10.4830    38.2360 h1         1 U79       0.084700
     73 H251        -1.2620   -12.6600    39.1300 hc         1 U79       0.095200
     74 H252        -0.8080   -13.1750    37.4690 hc         1 U79       0.095200
     75 H281        -4.2980   -14.9970    35.5360 h1         1 U79       0.049700
     76 H282        -4.7560   -14.9530    37.2520 h1         1 U79       0.049700
     77 H283        -5.0470   -13.5350    36.2130 h1         1 U79       0.049700
     78 H343         3.5930    -8.0700    38.6540 hc         1 U79       0.065367
     79 H341         2.5050    -7.2950    37.4940 hc         1 U79       0.065367
     80 H342         2.2050    -7.1380    39.2410 hc         1 U79       0.065367
     81 H392        -3.6700    -8.5340    34.9920 hc         1 U79       0.053367
     82 H391        -4.0160    -6.8190    35.2090 hc         1 U79       0.053367
     83 H393        -2.8410    -7.3290    33.9870 hc         1 U79       0.053367
     84 H411        -1.9820    -4.2310    37.3330 hc         1 U79       0.052367
     85 H413        -2.5710    -4.5950    35.7050 hc         1 U79       0.052367
     86 H412        -3.5310    -5.0610    37.1210 hc         1 U79       0.052367
     87 H431        -0.1930    -7.8520    34.0050 ha         1 U79       0.129000
     88 H441         0.5200    -7.9930    31.6700 ha         1 U79       0.120000
     89 H481         9.3050    -7.0330    26.2980 ha         1 U79       0.142000
     90 H491         7.9160    -5.0340    26.7820 ha         1 U79       0.122000
     91 H512         4.4620    -4.9610    27.3810 hc         1 U79       0.052367
     92 H513         5.2060    -4.8320    28.9880 hc         1 U79       0.052367
     93 H511         5.9270    -4.0010    27.6060 hc         1 U79       0.052367
     94 H551         3.9160   -10.0860    28.9190 h4         1 U79       0.229000
     95 H101         2.2520   -12.2710    25.9900 hn         1 U79       0.317500
     96 H461         8.4870   -10.3700    27.3800 hn         1 U79       0.480000
     97 H541         6.2090   -10.6610    27.8700 hn         1 U79       0.351000
@<TRIPOS>BOND
     1     1     2 ar  
     2     1     4 ar  
     3     1    58 1   
     4     2     3 ar  
     5     2    60 1   
     6     3     6 ar  
     7     3    61 1   
     8     4     5 ar  
     9     4    62 1   
    10     5     6 ar  
    11     5    63 1   
    12     6     7 1   
    13     7    45 1   
    14     7    64 1   
    15     7    65 1   
    16     8     9 1   
    17     8    45 1   
    18     8    56 2   
    19     9    10 ar  
    20     9    12 ar  
    21    10    11 ar  
    22    10    66 1   
    23    11    14 ar  
    24    11    67 1   
    25    12    13 ar  
    26    12    68 1   
    27    13    14 ar  
    28    13    69 1   
    29    14    15 1   
    30    15    16 ar  
    31    15    34 ar  
    32    16    17 ar  
    33    16    70 1   
    34    17    18 ar  
    35    17    71 1   
    36    18    19 1   
    37    18    33 ar  
    38    19    28 1   
    39    19    46 2   
    40    20    21 1   
    41    20    24 1   
    42    20    46 1   
    43    20    72 1   
    44    21    22 1   
    45    21    73 1   
    46    21    74 1   
    47    22    54 1   
    48    22    55 2   
    49    23    54 1   
    50    23    75 1   
    51    23    76 1   
    52    23    77 1   
    53    24    47 2   
    54    24    49 1   
    55    25    26 1   
    56    25    48 2   
    57    25    49 1   
    58    26    78 1   
    59    26    79 1   
    60    26    80 1   
    61    27    28 2   
    62    27    49 1   
    63    27    59 1   
    64    28    29 1   
    65    29    30 1   
    66    29    31 2   
    67    30    81 1   
    68    30    82 1   
    69    30    83 1   
    70    31    32 1   
    71    31    59 1   
    72    32    84 1   
    73    32    85 1   
    74    32    86 1   
    75    33    34 ar  
    76    33    87 1   
    77    34    88 1   
    78    35    36 ar  
    79    35    41 ar  
    80    35    50 1   
    81    36    37 ar  
    82    36    89 1   
    83    37    38 ar  
    84    37    90 1   
    85    38    39 1   
    86    38    40 ar  
    87    39    91 1   
    88    39    92 1   
    89    39    93 1   
    90    40    41 ar  
    91    40    43 1   
    92    41    51 1   
    93    42    43 2   
    94    42    51 1   
    95    42    94 1   
    96    43    44 1   
    97    44    52 3   
    98    45    95 1   
    99    47    48 1   
   100    50    58 1   
   101    50    96 1   
   102    51    97 1   
   103    53    58 2   
   104    57    58 2   
@<TRIPOS>SUBSTRUCTURE
     1 U79         1 TEMP              0 ****  ****    0 ROOT
