@<TRIPOS>MOLECULE
U7A
   71    73     1     0     0
SMALL
No Charge or Current Charge


@<TRIPOS>ATOM
      1 C01        -25.2720     2.7730    16.2160 ca         1 U7A      -0.008000
      2 C02        -24.4490     3.5390    15.3720 ca         1 U7A      -0.130500
      3 C03        -24.9650     4.1000    14.1890 ca         1 U7A      -0.023300
      4 C04        -26.3170     3.8920    13.8590 ca         1 U7A      -0.130500
      5 C05        -27.1460     3.1270    14.6970 ca         1 U7A      -0.008000
      6 C06        -26.6250     2.5630    15.8810 ca         1 U7A      -0.273500
      7 C07        -24.0740     4.9360    13.2820 c3         1 U7A      -0.063100
      8 C08        -24.1490     6.4350    13.6290 c3         1 U7A       0.100000
      9 C10        -23.8020     7.8940    11.6000 c          1 U7A       0.602100
     10 C11        -21.8780     7.4700    13.2270 c3         1 U7A       0.110000
     11 C13        -22.8450     8.7230    10.6690 c3         1 U7A       0.095800
     12 C15        -21.7350     8.5100    14.3630 c3         1 U7A      -0.052100
     13 C16        -22.2890     9.8900    14.0200 ca         1 U7A      -0.087300
     14 C17        -23.6490    10.1860    14.2460 ca         1 U7A      -0.108000
     15 C18        -24.1550    11.4650    13.9560 ca         1 U7A      -0.110500
     16 C19        -23.3060    12.4580    13.4410 ca         1 U7A      -0.104000
     17 C20        -21.9500    12.1680    13.2110 ca         1 U7A      -0.110500
     18 C21        -21.4440    10.8880    13.4980 ca         1 U7A      -0.108000
     19 C22        -24.0840    10.8360    10.4680 c3         1 U7A       0.171800
     20 C23        -22.5140    10.1850     8.6570 c3         1 U7A       0.180800
     21 C24        -22.0340     9.0910     7.6770 c3         1 U7A      -0.023300
     22 C25        -25.0700    11.7220     9.6770 c3         1 U7A      -0.031100
     23 C26        -25.7250    12.7530    10.5870 ca         1 U7A      -0.079300
     24 C27        -25.2460    14.0780    10.6240 ca         1 U7A      -0.107000
     25 C28        -25.8320    15.0200    11.4870 ca         1 U7A      -0.113500
     26 C29        -26.9000    14.6430    12.3190 ca         1 U7A      -0.114000
     27 C30        -27.3810    13.3230    12.2870 ca         1 U7A      -0.113500
     28 C31        -26.7950    12.3810    11.4240 ca         1 U7A      -0.107000
     29 C36        -21.2700     9.6500     6.5600 c1         1 U7A       0.296900
     30 N09        -23.2770     7.2700    12.7660 n          1 U7A      -0.419800
     31 N14        -23.4570     9.7160     9.7140 n3         1 U7A      -0.714600
     32 N35        -27.3970     0.0680    16.4060 n8         1 U7A      -1.000100
     33 N37        -20.6410    10.0810     5.6790 n1         1 U7A      -0.465000
     34 O12        -24.9870     7.7440    11.3100 o          1 U7A      -0.577100
     35 O33        -27.1580     1.5910    18.3270 o          1 U7A      -0.545000
     36 O34        -29.0810     1.8170    16.6370 o          1 U7A      -0.545000
     37 S32        -27.6750     1.5830    16.9580 sy         1 U7A       1.123600
     38 H011       -24.8530     2.3450    17.1260 ha         1 U7A       0.137500
     39 H021       -23.4070     3.6970    15.6410 ha         1 U7A       0.122000
     40 H041       -26.7280     4.3250    12.9500 ha         1 U7A       0.122000
     41 H051       -28.1900     2.9790    14.4220 ha         1 U7A       0.137500
     42 H071       -24.3660     4.7970    12.2340 hc         1 U7A       0.059700
     43 H072       -23.0340     4.5980    13.3590 hc         1 U7A       0.059700
     44 H082       -23.8510     6.5660    14.6770 h1         1 U7A       0.060200
     45 H081       -25.1900     6.7740    13.5550 h1         1 U7A       0.060200
     46 H111       -21.5010     6.5080    13.6000 h1         1 U7A       0.047200
     47 H112       -21.2230     7.7420    12.3930 h1         1 U7A       0.047200
     48 H132       -22.2620     7.9680    10.1320 h1         1 U7A       0.051700
     49 H131       -22.1410     9.2650    11.3100 h1         1 U7A       0.051700
     50 H152       -22.2340     8.1260    15.2620 hc         1 U7A       0.053700
     51 H151       -20.6740     8.5870    14.6280 hc         1 U7A       0.053700
     52 H171       -24.3130     9.4260    14.6500 ha         1 U7A       0.110500
     53 H181       -25.2060    11.6870    14.1300 ha         1 U7A       0.115500
     54 H191       -23.6990    13.4470    13.2160 ha         1 U7A       0.123000
     55 H201       -21.2920    12.9350    12.8090 ha         1 U7A       0.115500
     56 H211       -20.3920    10.6750    13.3200 ha         1 U7A       0.110500
     57 H222       -23.2990    11.4830    10.8790 h1         1 U7A       0.041200
     58 H221       -24.6410    10.4350    11.3250 h1         1 U7A       0.041200
     59 H231       -21.6360    10.6560     9.1220 h1         1 U7A       0.042700
     60 H232       -23.0010    10.9580     8.0490 h1         1 U7A       0.042700
     61 H242       -22.8990     8.5520     7.2760 hc         1 U7A       0.079700
     62 H241       -21.3980     8.3630     8.1900 hc         1 U7A       0.079700
     63 H252       -25.8350    11.0820     9.2200 hc         1 U7A       0.058700
     64 H251       -24.5530    12.2260     8.8540 hc         1 U7A       0.058700
     65 H271       -24.4140    14.3770     9.9890 ha         1 U7A       0.113000
     66 H281       -25.4580    16.0410    11.5120 ha         1 U7A       0.112500
     67 H291       -27.3530    15.3720    12.9880 ha         1 U7A       0.112000
     68 H301       -28.2060    13.0290    12.9330 ha         1 U7A       0.112500
     69 H311       -27.1680    11.3590    11.4110 ha         1 U7A       0.113000
     70 H351       -28.3480    -0.2540    16.2440 hn         1 U7A       0.472000
     71 H352       -27.0350     0.2420    15.4720 hn         1 U7A       0.472000
@<TRIPOS>BOND
     1     1     2 ar  
     2     1     6 ar  
     3     1    38 1   
     4     2     3 ar  
     5     2    39 1   
     6     3     4 ar  
     7     3     7 1   
     8     4     5 ar  
     9     4    40 1   
    10     5     6 ar  
    11     5    41 1   
    12     6    37 1   
    13     7     8 1   
    14     7    42 1   
    15     7    43 1   
    16     8    30 1   
    17     8    44 1   
    18     8    45 1   
    19     9    11 1   
    20     9    30 1   
    21     9    34 2   
    22    10    12 1   
    23    10    30 1   
    24    10    46 1   
    25    10    47 1   
    26    11    31 1   
    27    11    48 1   
    28    11    49 1   
    29    12    13 1   
    30    12    50 1   
    31    12    51 1   
    32    13    14 ar  
    33    13    18 ar  
    34    14    15 ar  
    35    14    52 1   
    36    15    16 ar  
    37    15    53 1   
    38    16    17 ar  
    39    16    54 1   
    40    17    18 ar  
    41    17    55 1   
    42    18    56 1   
    43    19    22 1   
    44    19    31 1   
    45    19    57 1   
    46    19    58 1   
    47    20    21 1   
    48    20    31 1   
    49    20    59 1   
    50    20    60 1   
    51    21    29 1   
    52    21    61 1   
    53    21    62 1   
    54    22    23 1   
    55    22    63 1   
    56    22    64 1   
    57    23    24 ar  
    58    23    28 ar  
    59    24    25 ar  
    60    24    65 1   
    61    25    26 ar  
    62    25    66 1   
    63    26    27 ar  
    64    26    67 1   
    65    27    28 ar  
    66    27    68 1   
    67    28    69 1   
    68    29    33 3   
    69    32    37 1   
    70    32    70 1   
    71    32    71 1   
    72    35    37 2   
    73    36    37 2   
@<TRIPOS>SUBSTRUCTURE
     1 U7A         1 TEMP              0 ****  ****    0 ROOT
