@<TRIPOS>MOLECULE
U7A
   71    73     1     0     0
SMALL
abcg2


@<TRIPOS>ATOM
      1 C01        -25.2190     2.8130    15.8830 ca         1 U7A      -0.008000
      2 C02        -24.3560     3.5690    15.1090 ca         1 U7A      -0.130500
      3 C03        -24.8070     4.2280    13.9660 ca         1 U7A      -0.023300
      4 C04        -26.1510     4.1180    13.6150 ca         1 U7A      -0.130500
      5 C05        -27.0310     3.3700    14.3810 ca         1 U7A      -0.008000
      6 C06        -26.5540     2.7200    15.5100 ca         1 U7A      -0.273500
      7 C07        -23.8860     5.0940    13.1590 c3         1 U7A      -0.063100
      8 C08        -23.9990     6.5550    13.6090 c3         1 U7A       0.100000
      9 C10        -23.6010     7.9580    11.6890 c          1 U7A       0.602100
     10 C11        -21.8150     7.6730    13.4030 c3         1 U7A       0.110000
     11 C13        -22.6510     8.8300    10.8690 c3         1 U7A       0.095800
     12 C15        -21.8170     8.6410    14.5950 c3         1 U7A      -0.052100
     13 C16        -22.4520     9.9690    14.2930 ca         1 U7A      -0.087300
     14 C17        -23.8240    10.1510    14.4650 ca         1 U7A      -0.108000
     15 C18        -24.4270    11.3640    14.1600 ca         1 U7A      -0.110500
     16 C19        -23.6660    12.4200    13.6770 ca         1 U7A      -0.104000
     17 C20        -22.2970    12.2550    13.5140 ca         1 U7A      -0.110500
     18 C21        -21.6980    11.0400    13.8180 ca         1 U7A      -0.108000
     19 C22        -23.9290    10.8130    10.5510 c3         1 U7A       0.171800
     20 C23        -22.5860     9.9400     8.7380 c3         1 U7A       0.180800
     21 C24        -22.6310     8.7690     7.7500 c3         1 U7A      -0.023300
     22 C25        -25.1600    11.3710     9.8430 c3         1 U7A      -0.031100
     23 C26        -25.6790    12.5610    10.6010 ca         1 U7A      -0.079300
     24 C27        -25.1240    13.8240    10.4060 ca         1 U7A      -0.107000
     25 C28        -25.5380    14.9110    11.1640 ca         1 U7A      -0.113500
     26 C29        -26.5190    14.7490    12.1350 ca         1 U7A      -0.114000
     27 C30        -27.0830    13.4960    12.3360 ca         1 U7A      -0.113500
     28 C31        -26.6630    12.4130    11.5750 ca         1 U7A      -0.107000
     29 C36        -21.8390     9.0360     6.5610 c1         1 U7A       0.296900
     30 N09        -23.1350     7.4380    12.8510 n          1 U7A      -0.419800
     31 N14        -23.3730     9.6330     9.9120 n3         1 U7A      -0.714600
     32 N35        -27.2830     0.2270    16.0070 n8         1 U7A      -1.000100
     33 N37        -21.2020     9.2620     5.6300 n1         1 U7A      -0.465000
     34 O12        -24.7250     7.7120    11.2850 o          1 U7A      -0.577100
     35 O33        -27.2480     1.8330    17.8980 o          1 U7A      -0.545000
     36 O34        -29.0190     2.1470    16.1600 o          1 U7A      -0.545000
     37 S32        -27.6570     1.7590    16.5020 sy         1 U7A       1.123600
     38 H011       -24.8500     2.3060    16.7640 ha         1 U7A       0.137500
     39 H021       -23.3150     3.6460    15.3970 ha         1 U7A       0.122000
     40 H041       -26.5170     4.6250    12.7310 ha         1 U7A       0.122000
     41 H051       -28.0710     3.3000    14.0940 ha         1 U7A       0.137500
     42 H071       -24.1420     5.0240    12.1000 hc         1 U7A       0.059700
     43 H072       -22.8540     4.7520    13.2690 hc         1 U7A       0.059700
     44 H082       -23.7310     6.6340    14.6640 h1         1 U7A       0.060200
     45 H081       -25.0320     6.8900    13.5230 h1         1 U7A       0.060200
     46 H111       -21.3990     6.7170    13.7300 h1         1 U7A       0.047200
     47 H112       -21.1410     8.0330    12.6300 h1         1 U7A       0.047200
     48 H132       -21.9650     8.1490    10.3540 h1         1 U7A       0.051700
     49 H131       -22.0240     9.4580    11.5150 h1         1 U7A       0.051700
     50 H152       -22.3290     8.1720    15.4390 hc         1 U7A       0.053700
     51 H151       -20.7780     8.7750    14.9060 hc         1 U7A       0.053700
     52 H171       -24.4270     9.3360    14.8480 ha         1 U7A       0.110500
     53 H181       -25.4940    11.4830    14.2910 ha         1 U7A       0.115500
     54 H191       -24.1420    13.3570    13.4160 ha         1 U7A       0.123000
     55 H201       -21.6940    13.0740    13.1430 ha         1 U7A       0.115500
     56 H211       -20.6280    10.9220    13.6850 ha         1 U7A       0.110500
     57 H222       -23.1730    11.6060    10.6650 h1         1 U7A       0.041200
     58 H221       -24.2220    10.5490    11.5670 h1         1 U7A       0.041200
     59 H231       -21.5420    10.1880     8.9770 h1         1 U7A       0.042700
     60 H232       -23.0070    10.8170     8.2450 h1         1 U7A       0.042700
     61 H242       -23.6620     8.5780     7.4480 hc         1 U7A       0.079700
     62 H241       -22.2500     7.8510     8.2020 hc         1 U7A       0.079700
     63 H252       -25.9160    10.5860     9.7870 hc         1 U7A       0.058700
     64 H251       -24.9200    11.6590     8.8160 hc         1 U7A       0.058700
     65 H271       -24.3550    13.9570     9.6540 ha         1 U7A       0.113000
     66 H281       -25.0950    15.8840    10.9980 ha         1 U7A       0.112500
     67 H291       -26.8430    15.5940    12.7290 ha         1 U7A       0.112000
     68 H301       -27.8510    13.3630    13.0880 ha         1 U7A       0.112500
     69 H311       -27.1040    11.4370    11.7450 ha         1 U7A       0.113000
     70 H351       -27.6130    -0.4660    16.6740 hn         1 U7A       0.472000
     71 H352       -27.6420     0.0170    15.0820 hn         1 U7A       0.472000
@<TRIPOS>BOND
     1     1     2 ar  
     2     1     6 ar  
     3     1    38 1   
     4     2     3 ar  
     5     2    39 1   
     6     3     4 ar  
     7     3     7 1   
     8     4     5 ar  
     9     4    40 1   
    10     5     6 ar  
    11     5    41 1   
    12     6    37 1   
    13     7     8 1   
    14     7    42 1   
    15     7    43 1   
    16     8    30 1   
    17     8    44 1   
    18     8    45 1   
    19     9    11 1   
    20     9    30 1   
    21     9    34 2   
    22    10    12 1   
    23    10    30 1   
    24    10    46 1   
    25    10    47 1   
    26    11    31 1   
    27    11    48 1   
    28    11    49 1   
    29    12    13 1   
    30    12    50 1   
    31    12    51 1   
    32    13    14 ar  
    33    13    18 ar  
    34    14    15 ar  
    35    14    52 1   
    36    15    16 ar  
    37    15    53 1   
    38    16    17 ar  
    39    16    54 1   
    40    17    18 ar  
    41    17    55 1   
    42    18    56 1   
    43    19    22 1   
    44    19    31 1   
    45    19    57 1   
    46    19    58 1   
    47    20    21 1   
    48    20    31 1   
    49    20    59 1   
    50    20    60 1   
    51    21    29 1   
    52    21    61 1   
    53    21    62 1   
    54    22    23 1   
    55    22    63 1   
    56    22    64 1   
    57    23    24 ar  
    58    23    28 ar  
    59    24    25 ar  
    60    24    65 1   
    61    25    26 ar  
    62    25    66 1   
    63    26    27 ar  
    64    26    67 1   
    65    27    28 ar  
    66    27    68 1   
    67    28    69 1   
    68    29    33 3   
    69    32    37 1   
    70    32    70 1   
    71    32    71 1   
    72    35    37 2   
    73    36    37 2   
@<TRIPOS>SUBSTRUCTURE
     1 U7A         1 TEMP              0 ****  ****    0 ROOT
