@<TRIPOS>MOLECULE
U7C
   24    26     1     0     0
SMALL
No Charge or Current Charge


@<TRIPOS>ATOM
      1 C1          15.5750    38.8460     8.5860 cc         1 U7C       0.196800
      2 C4          13.4190    38.3490     8.7440 cd         1 U7C       0.204500
      3 C5          14.3540    39.4120     8.7530 cd         1 U7C      -0.193000
      4 N3          14.0300    37.1720     8.5790 nc         1 U7C      -0.351300
      5 C7          16.9820    40.9020     8.6420 cd         1 U7C      -0.154100
      6 C8          16.8440    39.5210     8.5290 cc         1 U7C      -0.166000
      7 C9          18.1630    38.9800     8.3550 ca         1 U7C      -0.070800
      8 C10         19.0320    40.0380     8.3700 ca         1 U7C      -0.059200
      9 C11         19.9970    37.4440     8.0430 ca         1 U7C      -0.158000
     10 C12         20.8950    38.5360     8.0580 ca         1 U7C      -0.099000
     11 C13         20.4130    39.8510     8.2230 ca         1 U7C      -0.142000
     12 C14         18.6100    37.6580     8.1930 ca         1 U7C      -0.035000
     13 C15         11.9190    38.5010     8.8990 c          1 U7C       0.629500
     14 O2          15.4360    37.4880     8.4760 os         1 U7C      -0.124700
     15 N6          18.3560    41.2350     8.5430 na         1 U7C      -0.225700
     16 O16         11.2030    37.5050     8.8750 o          1 U7C      -0.699000
     17 O17         11.4540    39.6260     9.0450 o          1 U7C      -0.699000
     18 H1          14.1310    40.4650     8.8700 ha         1 U7C       0.144000
     19 H3          20.3760    36.4320     7.9150 ha         1 U7C       0.104000
     20 H4          21.9630    38.3610     7.9420 ha         1 U7C       0.098000
     21 H5          21.0970    40.6970     8.2360 ha         1 U7C       0.101000
     22 H6          17.9150    36.8220     8.1820 ha         1 U7C       0.139000
     23 H7          18.7650    42.1640     8.5890 hn         1 U7C       0.341000
     24 H2          16.2200    41.6650     8.7830 h4         1 U7C       0.218000
@<TRIPOS>BOND
     1     1     3 2   
     2     1     6 1   
     3     1    14 1   
     4     2     3 1   
     5     2     4 2   
     6     2    13 1   
     7     3    18 1   
     8     4    14 1   
     9     5     6 2   
    10     5    15 1   
    11     5    24 1   
    12     6     7 1   
    13     7     8 ar  
    14     7    12 ar  
    15     8    11 ar  
    16     8    15 1   
    17     9    10 ar  
    18     9    12 ar  
    19     9    19 1   
    20    10    11 ar  
    21    10    20 1   
    22    11    21 1   
    23    12    22 1   
    24    13    16 1   
    25    13    17 1   
    26    15    23 1   
@<TRIPOS>SUBSTRUCTURE
     1 U7C         1 TEMP              0 ****  ****    0 ROOT
