@<TRIPOS>MOLECULE
U7C
   24    26     1     0     0
SMALL
abcg2


@<TRIPOS>ATOM
      1 C1          15.5260    39.0240     8.5660 cc         1 U7C       0.196800
      2 C4          13.4440    38.3700     8.7290 cd         1 U7C       0.204500
      3 C5          14.2770    39.5110     8.8000 cd         1 U7C      -0.193000
      4 N3          14.1400    37.2960     8.4740 nc         1 U7C      -0.351300
      5 C7          17.0700    40.9780     8.5920 cd         1 U7C      -0.154100
      6 C8          16.8300    39.6280     8.5010 cc         1 U7C      -0.166000
      7 C9          18.1130    38.9960     8.3450 ca         1 U7C      -0.070800
      8 C10         19.0700    40.0330     8.3530 ca         1 U7C      -0.059200
      9 C11         19.9110    37.4340     8.0840 ca         1 U7C      -0.158000
     10 C12         20.8430    38.4830     8.0930 ca         1 U7C      -0.099000
     11 C13         20.4370    39.7960     8.2270 ca         1 U7C      -0.142000
     12 C14         18.5560    37.6740     8.2080 ca         1 U7C      -0.035000
     13 C15         11.9350    38.3210     8.9250 c          1 U7C       0.629500
     14 O2          15.4400    37.7020     8.3700 os         1 U7C      -0.124700
     15 N6          18.3980    41.2150     8.5030 na         1 U7C      -0.225700
     16 O16         11.4000    37.2060     8.8280 o          1 U7C      -0.699000
     17 O17         11.4100    39.4210     9.1640 o          1 U7C      -0.699000
     18 H1          13.9880    40.5280     9.0000 ha         1 U7C       0.144000
     19 H3          20.2620    36.4160     7.9780 ha         1 U7C       0.104000
     20 H4          21.8970    38.2600     7.9940 ha         1 U7C       0.098000
     21 H5          21.1510    40.6100     8.2360 ha         1 U7C       0.101000
     22 H6          17.8590    36.8490     8.1970 ha         1 U7C       0.139000
     23 H7          18.8230    42.1280     8.5490 hn         1 U7C       0.341000
     24 H2          16.3700    41.7900     8.7140 h4         1 U7C       0.218000
@<TRIPOS>BOND
     1     1     3 2   
     2     1     6 1   
     3     1    14 1   
     4     2     3 1   
     5     2     4 2   
     6     2    13 1   
     7     3    18 1   
     8     4    14 1   
     9     5     6 2   
    10     5    15 1   
    11     5    24 1   
    12     6     7 1   
    13     7     8 ar  
    14     7    12 ar  
    15     8    11 ar  
    16     8    15 1   
    17     9    10 ar  
    18     9    12 ar  
    19     9    19 1   
    20    10    11 ar  
    21    10    20 1   
    22    11    21 1   
    23    12    22 1   
    24    13    16 1   
    25    13    17 1   
    26    15    23 1   
@<TRIPOS>SUBSTRUCTURE
     1 U7C         1 TEMP              0 ****  ****    0 ROOT
