@<TRIPOS>MOLECULE
U7D
   33    34     1     0     0
SMALL
No Charge or Current Charge


@<TRIPOS>ATOM
      1 C10         57.8090    87.7310   103.1050 ca         1 U7D      -0.091000
      2 C11         57.1460    88.4100   102.0690 ca         1 U7D      -0.068000
      3 C12         55.9820    89.1620   102.3400 ca         1 U7D      -0.167300
      4 C13         55.5110    89.2390   103.6700 ca         1 U7D      -0.089000
      5 C14         55.2350    89.9020   101.2230 c3         1 U7D       0.344300
      6 C01         54.0180    94.6960   107.0390 ca         1 U7D      -0.181000
      7 N01         55.3770    93.0400   105.9070 nb         1 U7D      -0.720000
      8 S01         54.5610    89.2700   108.3380 s          1 U7D      -0.615400
      9 C02         55.0290    94.3270   106.1360 ca         1 U7D       0.365900
     10 N02         55.1840    90.8320   106.2320 ns         1 U7D      -0.438400
     11 C03         54.7180    92.0910   106.5920 ca         1 U7D       0.470900
     12 C04         53.6820    92.3610   107.5040 ca         1 U7D      -0.153000
     13 C05         53.3220    93.6980   107.7420 ca         1 U7D      -0.016300
     14 C06         52.2090    94.0500   108.7150 c3         1 U7D      -0.054800
     15 C07         55.1230    89.5980   106.8020 cs         1 U7D       0.488400
     16 C08         56.1890    88.5770   104.7150 ca         1 U7D       0.027600
     17 C09         57.3280    87.8080   104.4220 ca         1 U7D      -0.104000
     18 F01         53.8940    89.7710   101.3400 f          1 U7D      -0.109000
     19 F02         55.5590    89.4540    99.9880 f          1 U7D      -0.109000
     20 F03         55.5060    91.2260   101.2450 f          1 U7D      -0.109000
     21 H1          58.6990    87.1460   102.8860 ha         1 U7D       0.130000
     22 H2          57.5400    88.3400   101.0570 ha         1 U7D       0.139000
     23 H3          54.6020    89.7980   103.8800 ha         1 U7D       0.146000
     24 H5          55.5760    95.0850   105.5760 h4         1 U7D       0.024100
     25 H6          55.7090    90.8630   105.3720 hn         1 U7D       0.334500
     26 H8          53.1550    91.5570   108.0040 ha         1 U7D       0.158000
     27 H9          51.2350    94.0450   108.2120 hc         1 U7D       0.052367
     28 H10         52.1630    93.3340   109.5440 hc         1 U7D       0.052367
     29 H11         52.3580    95.0470   109.1490 hc         1 U7D       0.052367
     30 H12         57.8510    87.2810   105.2160 ha         1 U7D       0.129000
     31 N03         55.7290    88.6290   106.0550 ns         1 U7D      -0.377100
     32 H4          53.7790    95.7460   107.1790 ha         1 U7D       0.127000
     33 H7          55.8140    87.7480   106.5510 hn         1 U7D       0.360500
@<TRIPOS>BOND
     1     1     2 ar  
     2     1    17 ar  
     3     1    21 1   
     4     2     3 ar  
     5     2    22 1   
     6     3     4 ar  
     7     3     5 1   
     8     4    16 ar  
     9     4    23 1   
    10     5    18 1   
    11     5    19 1   
    12     5    20 1   
    13     6     9 ar  
    14     6    13 ar  
    15     6    32 1   
    16     7     9 ar  
    17     7    11 ar  
    18     8    15 2   
    19     9    24 1   
    20    10    11 1   
    21    10    15 1   
    22    10    25 1   
    23    11    12 ar  
    24    12    13 ar  
    25    12    26 1   
    26    13    14 1   
    27    14    27 1   
    28    14    28 1   
    29    14    29 1   
    30    15    31 1   
    31    16    17 ar  
    32    16    31 1   
    33    17    30 1   
    34    31    33 1   
@<TRIPOS>SUBSTRUCTURE
     1 U7D         1 TEMP              0 ****  ****    0 ROOT
