@<TRIPOS>MOLECULE
U7D
   33    34     1     0     0
SMALL
abcg2


@<TRIPOS>ATOM
      1 C10         57.7240    87.7880   103.0810 ca         1 U7D      -0.091000
      2 C11         57.0050    88.4290   102.0780 ca         1 U7D      -0.068000
      3 C12         55.8610    89.1420   102.4180 ca         1 U7D      -0.167300
      4 C13         55.4340    89.2270   103.7380 ca         1 U7D      -0.089000
      5 C14         55.0750    89.8640   101.3600 c3         1 U7D       0.344300
      6 C01         54.1040    94.6870   107.1230 ca         1 U7D      -0.181000
      7 N01         55.6300    93.1500   106.0990 nb         1 U7D      -0.720000
      8 S01         54.6980    89.3860   108.3720 s          1 U7D      -0.615400
      9 C02         55.2230    94.3950   106.3630 ca         1 U7D       0.365900
     10 N02         55.4020    90.8860   106.2290 ns         1 U7D      -0.438400
     11 C03         54.9100    92.1460   106.6020 ca         1 U7D       0.470900
     12 C04         53.7530    92.3370   107.3550 ca         1 U7D      -0.153000
     13 C05         53.3360    93.6350   107.6270 ca         1 U7D      -0.016300
     14 C06         52.0820    93.8930   108.4090 c3         1 U7D      -0.054800
     15 C07         55.2920    89.6740   106.8210 cs         1 U7D       0.488400
     16 C08         56.1760    88.6030   104.7390 ca         1 U7D       0.027600
     17 C09         57.3200    87.8770   104.4040 ca         1 U7D      -0.104000
     18 F01         53.7450    89.8370   101.5990 f          1 U7D      -0.109000
     19 F02         55.2640    89.3480   100.1290 f          1 U7D      -0.109000
     20 F03         55.4180    91.1760   101.2830 f          1 U7D      -0.109000
     21 H1          58.6110    87.2220   102.8280 ha         1 U7D       0.130000
     22 H2          57.3280    88.3670   101.0490 ha         1 U7D       0.139000
     23 H3          54.5230    89.7550   103.9840 ha         1 U7D       0.146000
     24 H5          55.8280    95.1920   105.9450 h4         1 U7D       0.024100
     25 H6          56.0350    90.9500   105.4410 hn         1 U7D       0.334500
     26 H8          53.1930    91.4900   107.7160 ha         1 U7D       0.158000
     27 H9          51.2510    94.1000   107.7300 hc         1 U7D       0.052367
     28 H10         51.8090    93.0300   109.0170 hc         1 U7D       0.052367
     29 H11         52.1970    94.7630   109.0570 hc         1 U7D       0.052367
     30 H12         57.8850    87.3870   105.1870 ha         1 U7D       0.129000
     31 N03         55.7640    88.6300   106.0900 ns         1 U7D      -0.377100
     32 H4          53.8290    95.7170   107.3130 ha         1 U7D       0.127000
     33 H7          55.8860    87.7790   106.6190 hn         1 U7D       0.360500
@<TRIPOS>BOND
     1     1     2 ar  
     2     1    17 ar  
     3     1    21 1   
     4     2     3 ar  
     5     2    22 1   
     6     3     4 ar  
     7     3     5 1   
     8     4    16 ar  
     9     4    23 1   
    10     5    18 1   
    11     5    19 1   
    12     5    20 1   
    13     6     9 ar  
    14     6    13 ar  
    15     6    32 1   
    16     7     9 ar  
    17     7    11 ar  
    18     8    15 2   
    19     9    24 1   
    20    10    11 1   
    21    10    15 1   
    22    10    25 1   
    23    11    12 ar  
    24    12    13 ar  
    25    12    26 1   
    26    13    14 1   
    27    14    27 1   
    28    14    28 1   
    29    14    29 1   
    30    15    31 1   
    31    16    17 ar  
    32    16    31 1   
    33    17    30 1   
    34    31    33 1   
@<TRIPOS>SUBSTRUCTURE
     1 U7D         1 TEMP              0 ****  ****    0 ROOT
