@<TRIPOS>MOLECULE
U7E
   22    23     1     0     0
SMALL
No Charge or Current Charge


@<TRIPOS>ATOM
      1 O1          -3.9110     0.2780     0.3990 o          1 U7E      -0.536500
      2 S           -2.7650    -0.5170    -0.0380 sy         1 U7E       1.127600
      3 O           -2.5150    -1.8670     0.4610 o          1 U7E      -0.536500
      4 N4          -3.0400    -0.7420    -1.6300 n8         1 U7E      -1.005100
      5 C           -1.2620     0.4590    -0.0230 ca         1 U7E      -0.271500
      6 C5          -1.3310     1.8660    -0.0230 ca         1 U7E       0.001000
      7 C4          -0.1470     2.6200    -0.0110 ca         1 U7E      -0.131000
      8 C3           1.1030     1.9810     0.0010 ca         1 U7E      -0.046000
      9 C2           1.1870     0.5700    -0.0020 ca         1 U7E      -0.161500
     10 C1          -0.0070    -0.1850    -0.0140 ca         1 U7E       0.048000
     11 C6           2.4870    -0.1140     0.0080 cc         1 U7E       0.453000
     12 N3           3.7160     0.4810     0.0200 na         1 U7E      -0.211700
     13 N2           4.6980    -0.4550     0.0260 nc         1 U7E      -0.200800
     14 N1           4.0610    -1.5940     0.0180 nd         1 U7E      -0.035000
     15 N            2.6970    -1.4150     0.0070 nd         1 U7E      -0.380000
     16 H41N        -3.9910    -0.3870    -1.7040 hn         1 U7E       0.477000
     17 H42N        -3.1870    -1.7480    -1.6520 hn         1 U7E       0.477000
     18 H5          -2.2930     2.3760    -0.0340 ha         1 U7E       0.144000
     19 H1           0.0380    -1.2740    -0.0190 ha         1 U7E       0.166000
     20 H4          -0.2000     3.7070    -0.0100 ha         1 U7E       0.126000
     21 H3           2.0020     2.5940     0.0100 ha         1 U7E       0.109000
     22 HA           3.9120     1.4740     0.0240 hn         1 U7E       0.387000
@<TRIPOS>BOND
     1     1     2 2   
     2     2     3 2   
     3     2     4 1   
     4     2     5 1   
     5     4    16 1   
     6     4    17 1   
     7     5     6 ar  
     8     5    10 ar  
     9     6     7 ar  
    10     6    18 1   
    11     7     8 ar  
    12     7    20 1   
    13     8     9 ar  
    14     8    21 1   
    15     9    10 ar  
    16     9    11 1   
    17    10    19 1   
    18    11    12 1   
    19    11    15 2   
    20    12    13 1   
    21    12    22 1   
    22    13    14 2   
    23    14    15 1   
@<TRIPOS>SUBSTRUCTURE
     1 U7E         1 TEMP              0 ****  ****    0 ROOT
