@<TRIPOS>MOLECULE
U7E
   22    23     1     0     0
SMALL
abcg2


@<TRIPOS>ATOM
      1 O1          -3.8390     0.3510     0.4290 o          1 U7E      -0.536500
      2 S           -2.7370    -0.5160     0.0390 sy         1 U7E       1.127600
      3 O           -2.4910    -1.7240     0.8120 o          1 U7E      -0.536500
      4 N4          -2.8170    -0.9950    -1.5370 n8         1 U7E      -1.005100
      5 C           -1.2640     0.4730     0.0160 ca         1 U7E      -0.271500
      6 C5          -1.3610     1.8560     0.0480 ca         1 U7E       0.001000
      7 C4          -0.1950     2.6070     0.0370 ca         1 U7E      -0.131000
      8 C3           1.0400     1.9830     0.0030 ca         1 U7E      -0.046000
      9 C2           1.1260     0.5920    -0.0220 ca         1 U7E      -0.161500
     10 C1          -0.0380    -0.1700    -0.0170 ca         1 U7E       0.048000
     11 C6           2.4110    -0.0940    -0.0490 cc         1 U7E       0.453000
     12 N3           3.6210     0.4700    -0.0120 na         1 U7E      -0.211700
     13 N2           4.5400    -0.4780    -0.0520 nc         1 U7E      -0.200800
     14 N1           3.9130    -1.5860    -0.1110 nd         1 U7E      -0.035000
     15 N            2.5980    -1.3930    -0.1120 nd         1 U7E      -0.380000
     16 H41N        -3.1450    -0.2600    -2.1570 hn         1 U7E       0.477000
     17 H42N        -3.3850    -1.8300    -1.6460 hn         1 U7E       0.477000
     18 H5          -2.3230     2.3490     0.0820 ha         1 U7E       0.144000
     19 H1           0.0240    -1.2500    -0.0360 ha         1 U7E       0.166000
     20 H4          -0.2510     3.6870     0.0590 ha         1 U7E       0.126000
     21 H3           1.9300     2.5980    -0.0030 ha         1 U7E       0.109000
     22 HA           3.8960     1.4410     0.0420 hn         1 U7E       0.387000
@<TRIPOS>BOND
     1     1     2 2   
     2     2     3 2   
     3     2     4 1   
     4     2     5 1   
     5     4    16 1   
     6     4    17 1   
     7     5     6 ar  
     8     5    10 ar  
     9     6     7 ar  
    10     6    18 1   
    11     7     8 ar  
    12     7    20 1   
    13     8     9 ar  
    14     8    21 1   
    15     9    10 ar  
    16     9    11 1   
    17    10    19 1   
    18    11    12 1   
    19    11    15 2   
    20    12    13 1   
    21    12    22 1   
    22    13    14 2   
    23    14    15 1   
@<TRIPOS>SUBSTRUCTURE
     1 U7E         1 TEMP              0 ****  ****    0 ROOT
