@<TRIPOS>MOLECULE
U7F
   37    37     1     0     0
SMALL
No Charge or Current Charge


@<TRIPOS>ATOM
      1 C10         11.6260     2.8290     3.0550 ca         1 U7F      -0.187500
      2 C13         12.7260     2.3960    -0.6080 c3         1 U7F       0.349300
      3 C17         11.4110     4.2070     0.6260 ca         1 U7F      -0.041000
      4 C01         11.0580     9.1270     7.3260 c3         1 U7F      -0.076600
      5 C03         11.8050     7.7290     5.3400 c3         1 U7F      -0.076600
      6 C04          9.5150     7.2740     6.4890 c3         1 U7F      -0.011400
      7 C05          9.3110     5.8090     6.0070 c3         1 U7F      -0.441700
      8 C06          9.5270     5.5870     4.5230 c          1 U7F       0.642100
      9 C09         10.9310     4.0520     3.0190 ca         1 U7F       0.080000
     10 C11         12.2000     2.2920     1.8910 ca         1 U7F      -0.041000
     11 C12         12.0900     2.9720     0.6620 ca         1 U7F      -0.301300
     12 C18         10.8380     4.7410     1.7930 ca         1 U7F      -0.187500
     13 F14         13.9980     2.8280    -0.7590 f          1 U7F      -0.137667
     14 F15         12.0530     2.7510    -1.7270 f          1 U7F      -0.137667
     15 F16         12.7660     1.0440    -0.5960 f          1 U7F      -0.137667
     16 N08         10.3880     4.5380     4.2370 ns         1 U7F      -0.161000
     17 O07          9.0210     6.3080     3.6700 o          1 U7F      -0.671100
     18 P19          7.6560     5.1340     6.2940 p5         1 U7F       1.282500
     19 H1          11.7220     2.2850     3.9910 ha         1 U7F       0.146500
     20 H2          11.3290     4.7640    -0.3050 ha         1 U7F       0.096500
     21 H3          10.5390     9.1200     8.2920 hc         1 U7F       0.013867
     22 H4          12.0980     9.4240     7.5060 hc         1 U7F       0.013867
     23 H5          10.5890     9.8870     6.6900 hc         1 U7F       0.013867
     24 H6          11.4820     7.0300     7.3430 hc         1 U7F       0.046700
     25 H7          12.8000     8.1630     5.4980 hc         1 U7F       0.013867
     26 H8          11.9550     6.7100     4.9690 hc         1 U7F       0.013867
     27 H9          11.2970     8.3150     4.5640 hc         1 U7F       0.013867
     28 H10          8.9880     7.9650     5.8180 hc         1 U7F       0.049200
     29 H11          9.0240     7.3760     7.4650 hc         1 U7F       0.049200
     30 H12          9.9550     5.1390     6.5860 hc         1 U7F       0.055700
     31 H13         12.7340     1.3450     1.9520 ha         1 U7F       0.096500
     32 H14         10.3340     5.7000     1.7240 ha         1 U7F       0.146500
     33 H15         10.6950     4.0320     5.0550 hn         1 U7F       0.236000
     34 O20          7.5420     3.8360     5.5740 o          1 U7F      -0.892833
     35 O21          7.5180     4.9110     7.7610 o          1 U7F      -0.892833
     36 O22          6.6220     6.1000     5.8270 o          1 U7F      -0.892833
     37 C02         10.9930     7.7340     6.6580 c3         1 U7F      -0.069700
@<TRIPOS>BOND
     1     1     9 ar  
     2     1    10 ar  
     3     1    19 1   
     4     2    11 1   
     5     2    13 1   
     6     2    14 1   
     7     2    15 1   
     8     3    11 ar  
     9     3    12 ar  
    10     3    20 1   
    11     4    21 1   
    12     4    22 1   
    13     4    23 1   
    14     4    37 1   
    15     5    25 1   
    16     5    26 1   
    17     5    27 1   
    18     5    37 1   
    19     6     7 1   
    20     6    28 1   
    21     6    29 1   
    22     6    37 1   
    23     7     8 1   
    24     7    18 1   
    25     7    30 1   
    26     8    16 1   
    27     8    17 2   
    28     9    12 ar  
    29     9    16 1   
    30    10    11 ar  
    31    10    31 1   
    32    12    32 1   
    33    16    33 1   
    34    18    34 1   
    35    18    35 1   
    36    18    36 1   
    37    24    37 1   
@<TRIPOS>SUBSTRUCTURE
     1 U7F         1 TEMP              0 ****  ****    0 ROOT
