@<TRIPOS>MOLECULE
U7F
   37    37     1     0     0
SMALL
abcg2


@<TRIPOS>ATOM
      1 C10         11.0610     2.5430     2.7480 ca         1 U7F      -0.187500
      2 C13         12.0930     2.0910    -0.8610 c3         1 U7F       0.349300
      3 C17         11.7300     4.1040     0.5600 ca         1 U7F      -0.041000
      4 C01         10.1520     9.4870     7.4420 c3         1 U7F      -0.076600
      5 C03         11.9230     8.3050     6.1050 c3         1 U7F      -0.076600
      6 C04          9.5630     7.3510     6.2460 c3         1 U7F      -0.011400
      7 C05          9.9450     5.9170     5.8700 c3         1 U7F      -0.441700
      8 C06         10.3010     5.7460     4.4110 c          1 U7F       0.642100
      9 C09         11.0510     3.9420     2.8730 ca         1 U7F       0.080000
     10 C11         11.3910     1.9370     1.5500 ca         1 U7F      -0.041000
     11 C12         11.7200     2.7160     0.4420 ca         1 U7F      -0.301300
     12 C18         11.4020     4.7180     1.7570 ca         1 U7F      -0.187500
     13 F14         13.4280     2.1760    -1.1200 f          1 U7F      -0.137667
     14 F15         11.4800     2.6880    -1.9140 f          1 U7F      -0.137667
     15 F16         11.7840     0.7780    -0.9260 f          1 U7F      -0.137667
     16 N08         10.7210     4.4710     4.1120 ns         1 U7F      -0.161000
     17 O07         10.2110     6.6370     3.5680 o          1 U7F      -0.671100
     18 P19          8.6700     4.6290     6.4230 p5         1 U7F       1.282500
     19 H1          10.7960     1.9360     3.6040 ha         1 U7F       0.146500
     20 H2          11.9940     4.7180    -0.2930 ha         1 U7F       0.096500
     21 H3           9.2790     9.3700     8.0890 hc         1 U7F       0.013867
     22 H4          10.9170    10.0330     7.9990 hc         1 U7F       0.013867
     23 H5           9.8550    10.1050     6.5890 hc         1 U7F       0.013867
     24 H6          10.9530     7.5480     7.8520 hc         1 U7F       0.046700
     25 H7          12.7070     8.8250     6.6600 hc         1 U7F       0.013867
     26 H8          12.3280     7.3450     5.7780 hc         1 U7F       0.013867
     27 H9          11.6970     8.8930     5.2110 hc         1 U7F       0.013867
     28 H10          9.2710     7.8960     5.3460 hc         1 U7F       0.049200
     29 H11          8.6910     7.3260     6.9020 hc         1 U7F       0.049200
     30 H12         10.8300     5.6140     6.4400 hc         1 U7F       0.055700
     31 H13         11.3830     0.8580     1.4770 ha         1 U7F       0.096500
     32 H14         11.4080     5.7920     1.8350 ha         1 U7F       0.146500
     33 H15         10.4490     3.7970     4.8510 hn         1 U7F       0.236000
     34 O20          9.4050     3.2950     6.1800 o          1 U7F      -0.892833
     35 O21          8.4310     4.9190     7.9010 o          1 U7F      -0.892833
     36 O22          7.4430     4.8210     5.5350 o          1 U7F      -0.892833
     37 C02         10.6720     8.1300     6.9660 c3         1 U7F      -0.069700
@<TRIPOS>BOND
     1     1     9 ar  
     2     1    10 ar  
     3     1    19 1   
     4     2    11 1   
     5     2    13 1   
     6     2    14 1   
     7     2    15 1   
     8     3    11 ar  
     9     3    12 ar  
    10     3    20 1   
    11     4    21 1   
    12     4    22 1   
    13     4    23 1   
    14     4    37 1   
    15     5    25 1   
    16     5    26 1   
    17     5    27 1   
    18     5    37 1   
    19     6     7 1   
    20     6    28 1   
    21     6    29 1   
    22     6    37 1   
    23     7     8 1   
    24     7    18 1   
    25     7    30 1   
    26     8    16 1   
    27     8    17 2   
    28     9    12 ar  
    29     9    16 1   
    30    10    11 ar  
    31    10    31 1   
    32    12    32 1   
    33    16    33 1   
    34    18    34 1   
    35    18    35 1   
    36    18    36 1   
    37    24    37 1   
@<TRIPOS>SUBSTRUCTURE
     1 U7F         1 TEMP              0 ****  ****    0 ROOT
