@<TRIPOS>MOLECULE
U7G
   69    71     1     0     0
SMALL
No Charge or Current Charge


@<TRIPOS>ATOM
      1 C01        -24.9480     2.2400    15.7540 ca         1 U7G      -0.009500
      2 C02        -24.5840     3.5770    15.5160 ca         1 U7G      -0.129500
      3 C03        -25.4190     4.4200    14.7600 ca         1 U7G      -0.020300
      4 C04        -26.6230     3.9120    14.2380 ca         1 U7G      -0.129500
      5 C05        -26.9940     2.5760    14.4710 ca         1 U7G      -0.009500
      6 C06        -26.1560     1.7340    15.2320 ca         1 U7G      -0.275500
      7 C07        -25.0210     5.8650    14.5000 c3         1 U7G      -0.066100
      8 C08        -24.2610     6.0210    13.1690 c3         1 U7G       0.111000
      9 C10        -24.6790     8.2310    12.0200 c          1 U7G       0.600100
     10 C11        -22.6530     7.9410    13.5470 c3         1 U7G       0.083700
     11 C13        -24.2010     9.6910    11.6940 c3         1 U7G       0.095800
     12 C14        -22.9220     9.0990    14.4750 cc         1 U7G       0.088300
     13 C16        -24.3810    11.8510    10.4430 c3         1 U7G       0.175800
     14 C17        -24.4330     9.6840     9.2230 c3         1 U7G       0.181800
     15 C18        -24.8640    12.7060    11.6380 c3         1 U7G      -0.037100
     16 C19        -24.6290    14.1930    11.4030 ca         1 U7G      -0.079300
     17 C20        -23.4130    14.7890    11.7890 ca         1 U7G      -0.108000
     18 C21        -23.1930    16.1600    11.5670 ca         1 U7G      -0.109500
     19 C22        -24.1880    16.9420    10.9560 ca         1 U7G      -0.112000
     20 C23        -25.4030    16.3520    10.5670 ca         1 U7G      -0.109500
     21 C24        -25.6220    14.9810    10.7890 ca         1 U7G      -0.108000
     22 C25        -25.2090    10.1670     7.9730 c3         1 U7G      -0.072400
     23 C26        -25.0540     9.2340     6.7530 c3         1 U7G       0.146800
     24 C28        -22.3200    10.3240    14.5710 cd         1 U7G      -0.174000
     25 C29        -22.9960    11.0360    15.5830 cd         1 U7G      -0.187000
     26 C30        -23.9810    10.2180    16.0650 cc         1 U7G       0.132900
     27 N09        -23.8800     7.4250    12.8790 n          1 U7G      -0.423800
     28 N15        -24.7570    10.4060    10.4880 n3         1 U7G      -0.718600
     29 N27        -23.6670     9.1880     6.2510 n8         1 U7G      -1.001200
     30 N35        -25.8710    -0.7460    14.3010 n8         1 U7G      -1.001100
     31 O12        -25.7240     7.7830    11.5560 o          1 U7G      -0.575100
     32 O31        -23.9490     9.0170    15.3910 os         1 U7G      -0.233000
     33 O33        -28.0400    -0.1660    15.2520 o          1 U7G      -0.545500
     34 O34        -25.9730    -0.4770    16.7470 o          1 U7G      -0.545500
     35 S32        -26.6190     0.0260    15.5340 sy         1 U7G       1.124600
     36 H011       -24.2880     1.6020    16.3410 ha         1 U7G       0.136000
     37 H021       -23.6490     3.9560    15.9220 ha         1 U7G       0.123000
     38 H041       -27.2750     4.5530    13.6490 ha         1 U7G       0.123000
     39 H051       -27.9320     2.2040    14.0590 ha         1 U7G       0.136000
     40 H071       -24.3940     6.2370    15.3190 hc         1 U7G       0.068200
     41 H072       -25.9110     6.5040    14.4790 hc         1 U7G       0.068200
     42 H082       -24.8760     5.6210    12.3520 h1         1 U7G       0.056200
     43 H081       -23.3520     5.4070    13.2050 h1         1 U7G       0.056200
     44 H112       -22.1880     7.1370    14.1320 h1         1 U7G       0.065700
     45 H111       -21.9250     8.2430    12.7840 h1         1 U7G       0.065700
     46 H132       -23.1080     9.6690    11.6080 h1         1 U7G       0.050200
     47 H131       -24.4350    10.2560    12.6030 h1         1 U7G       0.050200
     48 H162       -23.2890    11.9510    10.3620 h1         1 U7G       0.035700
     49 H161       -24.8080    12.3140     9.5450 h1         1 U7G       0.035700
     50 H172       -24.6580     8.6160     9.3420 h1         1 U7G       0.040700
     51 H171       -23.3550     9.7540     9.0200 h1         1 U7G       0.040700
     52 H182       -25.9310    12.5150    11.8050 hc         1 U7G       0.056700
     53 H181       -24.3450    12.4000    12.5530 hc         1 U7G       0.056700
     54 H201       -22.6360    14.1910    12.2610 ha         1 U7G       0.109500
     55 H211       -22.2520    16.6150    11.8670 ha         1 U7G       0.111000
     56 H221       -24.0180    18.0020    10.7840 ha         1 U7G       0.111000
     57 H231       -26.1730    16.9560    10.0930 ha         1 U7G       0.111000
     58 H241       -26.5640    14.5320    10.4830 ha         1 U7G       0.109500
     59 H251       -24.8880    11.1750     7.6910 hc         1 U7G       0.049700
     60 H252       -26.2740    10.2290     8.2250 hc         1 U7G       0.049700
     61 H261       -25.7060     9.5880     5.9420 h1         1 U7G       0.029200
     62 H262       -25.3670     8.2160     7.0250 h1         1 U7G       0.029200
     63 H281       -21.4870    10.6780    13.9720 ha         1 U7G       0.141000
     64 H291       -22.7830    12.0450    15.9210 ha         1 U7G       0.146000
     65 H301       -24.7300    10.3530    16.8330 h4         1 U7G       0.057100
     66 H271       -23.6350     8.6000     5.4090 hn         1 U7G       0.390500
     67 H2         -23.4060    10.1190     5.9030 hn         1 U7G       0.390500
     68 H352       -26.6460    -1.2700    13.9030 hn         1 U7G       0.471500
     69 H351       -25.7190     0.0080    13.6350 hn         1 U7G       0.471500
@<TRIPOS>BOND
     1     1     2 ar  
     2     1     6 ar  
     3     1    36 1   
     4     2     3 ar  
     5     2    37 1   
     6     3     4 ar  
     7     3     7 1   
     8     4     5 ar  
     9     4    38 1   
    10     5     6 ar  
    11     5    39 1   
    12     6    35 1   
    13     7     8 1   
    14     7    40 1   
    15     7    41 1   
    16     8    27 1   
    17     8    42 1   
    18     8    43 1   
    19     9    11 1   
    20     9    27 1   
    21     9    31 2   
    22    10    12 1   
    23    10    27 1   
    24    10    44 1   
    25    10    45 1   
    26    11    28 1   
    27    11    46 1   
    28    11    47 1   
    29    12    24 2   
    30    12    32 1   
    31    13    15 1   
    32    13    28 1   
    33    13    48 1   
    34    13    49 1   
    35    14    22 1   
    36    14    28 1   
    37    14    50 1   
    38    14    51 1   
    39    15    16 1   
    40    15    52 1   
    41    15    53 1   
    42    16    17 ar  
    43    16    21 ar  
    44    17    18 ar  
    45    17    54 1   
    46    18    19 ar  
    47    18    55 1   
    48    19    20 ar  
    49    19    56 1   
    50    20    21 ar  
    51    20    57 1   
    52    21    58 1   
    53    22    23 1   
    54    22    59 1   
    55    22    60 1   
    56    23    29 1   
    57    23    61 1   
    58    23    62 1   
    59    24    25 1   
    60    24    63 1   
    61    25    26 2   
    62    25    64 1   
    63    26    32 1   
    64    26    65 1   
    65    29    66 1   
    66    29    67 1   
    67    30    35 1   
    68    30    68 1   
    69    30    69 1   
    70    33    35 2   
    71    34    35 2   
@<TRIPOS>SUBSTRUCTURE
     1 U7G         1 TEMP              0 ****  ****    0 ROOT
