@<TRIPOS>MOLECULE
U7G
   69    71     1     0     0
SMALL
abcg2


@<TRIPOS>ATOM
      1 C01        -25.3480     2.7350    15.7190 ca         1 U7G      -0.009500
      2 C02        -24.8890     4.0220    15.5000 ca         1 U7G      -0.129500
      3 C03        -25.5320     4.8700    14.5980 ca         1 U7G      -0.020300
      4 C04        -26.6460     4.3950    13.9110 ca         1 U7G      -0.129500
      5 C05        -27.1260     3.1130    14.1250 ca         1 U7G      -0.009500
      6 C06        -26.4680     2.2910    15.0280 ca         1 U7G      -0.275500
      7 C07        -25.0110     6.2530    14.3380 c3         1 U7G      -0.066100
      8 C08        -23.9110     6.2160    13.2710 c3         1 U7G       0.111000
      9 C10        -24.1510     8.1730    11.8800 c          1 U7G       0.600100
     10 C11        -22.2820     8.1050    13.5030 c3         1 U7G       0.083700
     11 C13        -23.5980     9.5130    11.4170 c3         1 U7G       0.095800
     12 C14        -22.5720     9.2080    14.4610 cc         1 U7G       0.088300
     13 C16        -24.2680    11.5590    10.3800 c3         1 U7G       0.175800
     14 C17        -24.1420     9.5280     9.0720 c3         1 U7G       0.181800
     15 C18        -25.0950    12.2200    11.4840 c3         1 U7G      -0.037100
     16 C19        -24.8890    13.7080    11.5070 ca         1 U7G      -0.079300
     17 C20        -23.8120    14.2610    12.1980 ca         1 U7G      -0.108000
     18 C21        -23.5870    15.6310    12.1920 ca         1 U7G      -0.109500
     19 C22        -24.4400    16.4730    11.4900 ca         1 U7G      -0.112000
     20 C23        -25.5170    15.9350    10.7980 ca         1 U7G      -0.109500
     21 C24        -25.7360    14.5630    10.8070 ca         1 U7G      -0.108000
     22 C25        -25.3630     9.5910     8.1650 c3         1 U7G      -0.072400
     23 C26        -25.1080     9.0200     6.7770 c3         1 U7G       0.146800
     24 C28        -22.1610    10.4990    14.5110 cd         1 U7G      -0.174000
     25 C29        -22.7610    11.0700    15.6760 cd         1 U7G      -0.187000
     26 C30        -23.4890    10.0790    16.2400 cc         1 U7G       0.132900
     27 N09        -23.4500     7.5280    12.8490 n          1 U7G      -0.423800
     28 N15        -24.3980    10.1120    10.3830 n3         1 U7G      -0.718600
     29 N27        -24.1190     9.8050     6.0510 n8         1 U7G      -1.001200
     30 N35        -26.0410    -0.2450    14.4070 n8         1 U7G      -1.001100
     31 O12        -25.1660     7.6950    11.4010 o          1 U7G      -0.575100
     32 O31        -23.3760     8.9470    15.5130 os         1 U7G      -0.233000
     33 O33        -28.4510     0.5990    14.8600 o          1 U7G      -0.545500
     34 O34        -26.8000     0.2830    16.7100 o          1 U7G      -0.545500
     35 S32        -27.0730     0.6580    15.3300 sy         1 U7G       1.124600
     36 H011       -24.8400     2.0940    16.4260 ha         1 U7G       0.136000
     37 H021       -24.0230     4.3760    16.0460 ha         1 U7G       0.123000
     38 H041       -27.1560     5.0410    13.2070 ha         1 U7G       0.123000
     39 H051       -28.0040     2.7690    13.5950 ha         1 U7G       0.136000
     40 H071       -24.6190     6.6840    15.2590 hc         1 U7G       0.068200
     41 H072       -25.8240     6.8950    13.9960 hc         1 U7G       0.068200
     42 H082       -24.2730     5.6740    12.3980 h1         1 U7G       0.056200
     43 H081       -23.0500     5.6630    13.6510 h1         1 U7G       0.056200
     44 H112       -21.7670     7.2920    14.0170 h1         1 U7G       0.065700
     45 H111       -21.5730     8.4840    12.7650 h1         1 U7G       0.065700
     46 H132       -22.5440     9.3910    11.1150 h1         1 U7G       0.050200
     47 H131       -23.5740    10.1750    12.2850 h1         1 U7G       0.050200
     48 H162       -23.2150    11.8780    10.4590 h1         1 U7G       0.035700
     49 H161       -24.6240    11.9380     9.4200 h1         1 U7G       0.035700
     50 H172       -23.8760     8.4780     9.2020 h1         1 U7G       0.040700
     51 H171       -23.2790    10.0030     8.5840 h1         1 U7G       0.040700
     52 H182       -26.1480    11.9790    11.3210 hc         1 U7G       0.056700
     53 H181       -24.8270    11.8070    12.4600 hc         1 U7G       0.056700
     54 H201       -23.1440    13.6110    12.7520 ha         1 U7G       0.109500
     55 H211       -22.7460    16.0410    12.7360 ha         1 U7G       0.111000
     56 H221       -24.2680    17.5420    11.4850 ha         1 U7G       0.111000
     57 H231       -26.1890    16.5830    10.2510 ha         1 U7G       0.111000
     58 H241       -26.5820    14.1530    10.2670 ha         1 U7G       0.109500
     59 H251       -25.7190    10.6230     8.0670 hc         1 U7G       0.049700
     60 H252       -26.1720     9.0300     8.6390 hc         1 U7G       0.049700
     61 H261       -26.0690     8.9380     6.2510 h1         1 U7G       0.029200
     62 H262       -24.7270     7.9990     6.8750 h1         1 U7G       0.029200
     63 H281       -21.5120    10.9910    13.8030 ha         1 U7G       0.141000
     64 H291       -22.6630    12.0810    16.0360 ha         1 U7G       0.146000
     65 H301       -24.1120    10.0300    17.1180 h4         1 U7G       0.057100
     66 H271       -23.9400     9.3750     5.1530 hn         1 U7G       0.390500
     67 H2         -24.5080    10.7170     5.8440 hn         1 U7G       0.390500
     68 H352       -26.0730    -1.2260    14.6720 hn         1 U7G       0.471500
     69 H351       -26.2190    -0.1470    13.4130 hn         1 U7G       0.471500
@<TRIPOS>BOND
     1     1     2 ar  
     2     1     6 ar  
     3     1    36 1   
     4     2     3 ar  
     5     2    37 1   
     6     3     4 ar  
     7     3     7 1   
     8     4     5 ar  
     9     4    38 1   
    10     5     6 ar  
    11     5    39 1   
    12     6    35 1   
    13     7     8 1   
    14     7    40 1   
    15     7    41 1   
    16     8    27 1   
    17     8    42 1   
    18     8    43 1   
    19     9    11 1   
    20     9    27 1   
    21     9    31 2   
    22    10    12 1   
    23    10    27 1   
    24    10    44 1   
    25    10    45 1   
    26    11    28 1   
    27    11    46 1   
    28    11    47 1   
    29    12    24 2   
    30    12    32 1   
    31    13    15 1   
    32    13    28 1   
    33    13    48 1   
    34    13    49 1   
    35    14    22 1   
    36    14    28 1   
    37    14    50 1   
    38    14    51 1   
    39    15    16 1   
    40    15    52 1   
    41    15    53 1   
    42    16    17 ar  
    43    16    21 ar  
    44    17    18 ar  
    45    17    54 1   
    46    18    19 ar  
    47    18    55 1   
    48    19    20 ar  
    49    19    56 1   
    50    20    21 ar  
    51    20    57 1   
    52    21    58 1   
    53    22    23 1   
    54    22    59 1   
    55    22    60 1   
    56    23    29 1   
    57    23    61 1   
    58    23    62 1   
    59    24    25 1   
    60    24    63 1   
    61    25    26 2   
    62    25    64 1   
    63    26    32 1   
    64    26    65 1   
    65    29    66 1   
    66    29    67 1   
    67    30    35 1   
    68    30    68 1   
    69    30    69 1   
    70    33    35 2   
    71    34    35 2   
@<TRIPOS>SUBSTRUCTURE
     1 U7G         1 TEMP              0 ****  ****    0 ROOT
