@<TRIPOS>MOLECULE
U7H
   63    67     1     0     0
SMALL
No Charge or Current Charge


@<TRIPOS>ATOM
      1 C1          19.5080   -20.4100    18.1560 c3         1 U7H       0.050600
      2 C2          19.4930   -19.5890    16.8250 c3         1 U7H       0.107000
      3 C3          20.8620   -18.7600    16.7270 c          1 U7H       0.583100
      4 O4          20.8300   -17.5450    16.5630 o          1 U7H      -0.580100
      5 C7          24.1370   -18.5900    15.6730 c6         1 U7H       0.162800
      6 C8          23.1820   -20.8340    15.1330 c6         1 U7H       0.162800
      7 C9          22.4060   -20.8000    16.4800 c6         1 U7H       0.092500
      8 C11         18.2140   -18.6690    16.7830 c3         1 U7H      -0.074100
      9 C15         17.9060   -22.3730    17.8250 cc         1 U7H      -0.151000
     10 C16         16.7120   -22.7090    18.4130 cd         1 U7H      -0.151000
     11 C19         15.9360   -23.9360    18.0910 ca         1 U7H       0.013000
     12 C20         16.5320   -24.9520    17.3060 ca         1 U7H      -0.107000
     13 C21         15.8290   -26.1250    16.9800 ca         1 U7H      -0.108500
     14 C22         14.5120   -26.3030    17.4250 ca         1 U7H      -0.113000
     15 C24         14.6020   -24.1290    18.5190 ca         1 U7H      -0.107000
     16 C27         26.1590   -20.5050    11.9210 ca         1 U7H      -0.095000
     17 C30         26.8060   -20.2390    14.6490 ca         1 U7H      -0.010000
     18 C31         27.1970   -20.1270    16.0010 ca         1 U7H      -0.135000
     19 C32         28.5580   -20.1950    16.3350 ca         1 U7H       0.314900
     20 C34         29.1680   -20.4830    14.1210 ca         1 U7H       0.356900
     21 N5          22.1150   -19.4010    16.9110 n          1 U7H      -0.416800
     22 C6          23.3690   -18.6080    17.0200 c6         1 U7H       0.092500
     23 N10         24.4020   -19.9720    15.1740 nh         1 U7H      -0.782400
     24 O12         19.3550   -20.4950    15.7010 oh         1 U7H      -0.645000
     25 N13         18.2870   -21.1900    18.4390 na         1 U7H       0.130800
     26 N14         17.4240   -20.7820    19.4270 nc         1 U7H      -0.525800
     27 C17         16.4850   -21.7080    19.4070 cd         1 U7H       0.277300
     28 C18         15.3790   -21.6120    20.4260 c3         1 U7H      -0.121400
     29 C23         13.8990   -25.3020    18.1910 ca         1 U7H      -0.108500
     30 C25         25.4480   -20.1790    14.2410 ca         1 U7H       0.264000
     31 C26         27.5010   -20.5590    12.3290 ca         1 U7H      -0.093000
     32 C28         25.1420   -20.3160    12.8720 ca         1 U7H      -0.140000
     33 C29         27.8260   -20.4270    13.6910 ca         1 U7H      -0.089000
     34 N33         29.5370   -20.3690    15.4180 nb         1 U7H      -0.658000
     35 H1          20.3490   -21.1090    18.1660 h1         1 U7H       0.077700
     36 H2          19.6690   -19.7150    18.9890 h1         1 U7H       0.077700
     37 H3          25.0820   -18.0450    15.8130 h1         1 U7H       0.050700
     38 H4          23.5450   -18.0320    14.9320 h1         1 U7H       0.050700
     39 H5          22.5100   -20.4940    14.3320 h1         1 U7H       0.050700
     40 H6          23.4590   -21.8750    14.9120 h1         1 U7H       0.050700
     41 H7          21.5000   -21.4070    16.3820 h1         1 U7H       0.061200
     42 H8          23.0230   -21.2830    17.2510 h1         1 U7H       0.061200
     43 H9          18.1880   -18.0030    17.6540 hc         1 U7H       0.061367
     44 H10         18.2100   -18.0450    15.8820 hc         1 U7H       0.061367
     45 H11         17.2910   -19.2620    16.7810 hc         1 U7H       0.061367
     46 H12         18.4900   -22.8350    17.0400 h4         1 U7H       0.149000
     47 H13         17.5530   -24.8510    16.9520 ha         1 U7H       0.110500
     48 H14         16.3090   -26.8970    16.3820 ha         1 U7H       0.111000
     49 H15         13.9670   -27.2100    17.1720 ha         1 U7H       0.112000
     50 H16         14.0760   -23.3700    19.0820 ha         1 U7H       0.110500
     51 H17         25.9070   -20.6050    10.8680 ha         1 U7H       0.117000
     52 H18         26.4650   -19.9940    16.7920 ha         1 U7H       0.132000
     53 H19         28.8780   -20.1110    17.3740 h4         1 U7H       0.019100
     54 H20         29.9750   -20.6260    13.4030 h4         1 U7H       0.019100
     55 H21         24.0110   -19.0590    17.7900 h1         1 U7H       0.061200
     56 H22         23.1620   -17.5780    17.3420 h1         1 U7H       0.061200
     57 H23         19.2640   -19.9510    14.8880 ho         1 U7H       0.439000
     58 H24         15.6170   -20.8850    21.2110 hc         1 U7H       0.049700
     59 H25         14.4410   -21.2910    19.9580 hc         1 U7H       0.049700
     60 H26         15.2150   -22.5760    20.9210 hc         1 U7H       0.049700
     61 H27         12.8720   -25.4300    18.5280 ha         1 U7H       0.111000
     62 H28         28.2850   -20.7050    11.5870 ha         1 U7H       0.120000
     63 H29         24.1090   -20.2630    12.5400 ha         1 U7H       0.115000
@<TRIPOS>BOND
     1     1     2 1   
     2     1    25 1   
     3     1    35 1   
     4     1    36 1   
     5     2     3 1   
     6     2     8 1   
     7     2    24 1   
     8     3     4 2   
     9     3    21 1   
    10     5    22 1   
    11     5    23 1   
    12     5    37 1   
    13     5    38 1   
    14     6     7 1   
    15     6    23 1   
    16     6    39 1   
    17     6    40 1   
    18     7    21 1   
    19     7    41 1   
    20     7    42 1   
    21     8    43 1   
    22     8    44 1   
    23     8    45 1   
    24     9    10 2   
    25     9    25 1   
    26     9    46 1   
    27    10    11 1   
    28    10    27 1   
    29    11    12 ar  
    30    11    15 ar  
    31    12    13 ar  
    32    12    47 1   
    33    13    14 ar  
    34    13    48 1   
    35    14    29 ar  
    36    14    49 1   
    37    15    29 ar  
    38    15    50 1   
    39    16    31 ar  
    40    16    32 ar  
    41    16    51 1   
    42    17    18 ar  
    43    17    30 ar  
    44    17    33 ar  
    45    18    19 ar  
    46    18    52 1   
    47    19    34 ar  
    48    19    53 1   
    49    20    33 ar  
    50    20    34 ar  
    51    20    54 1   
    52    21    22 1   
    53    22    55 1   
    54    22    56 1   
    55    23    30 1   
    56    24    57 1   
    57    25    26 1   
    58    26    27 2   
    59    27    28 1   
    60    28    58 1   
    61    28    59 1   
    62    28    60 1   
    63    29    61 1   
    64    30    32 ar  
    65    31    33 ar  
    66    31    62 1   
    67    32    63 1   
@<TRIPOS>SUBSTRUCTURE
     1 U7H         1 TEMP              0 ****  ****    0 ROOT
