@<TRIPOS>MOLECULE
U7H
   63    67     1     0     0
SMALL
bcc


@<TRIPOS>ATOM
      1 C1          19.6430   -20.5560    18.4130 c3         1 U7H       0.021300
      2 C2          19.7080   -19.6710    17.1490 c3         1 U7H       0.083800
      3 C3          21.0080   -18.8140    17.2130 c          1 U7H       0.650100
      4 O4          20.9060   -17.6100    17.3900 o          1 U7H      -0.580100
      5 C7          24.0910   -18.7230    15.6620 c6         1 U7H       0.162800
      6 C8          23.1990   -20.9450    15.4660 c6         1 U7H       0.162800
      7 C9          22.5640   -20.7880    16.8380 c6         1 U7H       0.092500
      8 C11         18.5030   -18.7360    17.1230 c3         1 U7H      -0.074100
      9 C15         18.0440   -22.3980    17.8910 cc         1 U7H      -0.118300
     10 C16         16.7670   -22.7150    18.3040 cd         1 U7H      -0.216300
     11 C19         15.9780   -23.8760    17.8900 ca         1 U7H       0.013000
     12 C20         16.6090   -25.0870    17.5850 ca         1 U7H      -0.125000
     13 C21         15.8760   -26.1920    17.1820 ca         1 U7H      -0.126500
     14 C22         14.4920   -26.1180    17.0840 ca         1 U7H      -0.131000
     15 C24         14.5870   -23.8140    17.7780 ca         1 U7H      -0.125000
     16 C27         25.7460   -21.0270    12.0390 ca         1 U7H      -0.113000
     17 C30         26.6560   -20.1100    14.5190 ca         1 U7H      -0.010000
     18 C31         27.2170   -19.7290    15.7580 ca         1 U7H      -0.218300
     19 C32         28.5640   -19.5140    15.8480 ca         1 U7H       0.380200
     20 C34         28.9200   -20.0230    13.6620 ca         1 U7H       0.422200
     21 N5          22.2240   -19.3980    17.0860 n          1 U7H      -0.483800
     22 C6          23.4180   -18.5660    17.0140 c6         1 U7H       0.092500
     23 N10         24.3950   -20.1280    15.4040 nh         1 U7H      -0.644000
     24 O12         19.6260   -20.3990    15.9420 oh         1 U7H      -0.582800
     25 N13         18.4050   -21.2820    18.5430 na         1 U7H       0.109400
     26 N14         17.4470   -20.8460    19.3610 nc         1 U7H      -0.525800
     27 C17         16.4430   -21.6940    19.2340 cd         1 U7H       0.342600
     28 C18         15.2040   -21.5270    20.0450 c3         1 U7H      -0.121400
     29 C23         13.8530   -24.9230    17.3850 ca         1 U7H      -0.126500
     30 C25         25.2640   -20.3540    14.3240 ca         1 U7H       0.125600
     31 C26         27.0750   -20.7500    12.1890 ca         1 U7H      -0.111000
     32 C28         24.8420   -20.8190    13.1010 ca         1 U7H      -0.158000
     33 C29         27.5490   -20.2900    13.4370 ca         1 U7H      -0.154300
     34 N33         29.4170   -19.6440    14.8080 nb         1 U7H      -0.658000
     35 H1          20.4580   -21.2780    18.4550 h1         1 U7H       0.077700
     36 H2          19.7380   -19.9210    19.2930 h1         1 U7H       0.077700
     37 H3          25.0110   -18.1370    15.6570 h1         1 U7H       0.050700
     38 H4          23.4400   -18.3110    14.8770 h1         1 U7H       0.050700
     39 H5          22.4540   -20.6790    14.7000 h1         1 U7H       0.050700
     40 H6          23.4700   -21.9910    15.3180 h1         1 U7H       0.050700
     41 H7          21.7200   -21.4610    16.9310 h1         1 U7H       0.061200
     42 H8          23.2790   -21.1050    17.6020 h1         1 U7H       0.061200
     43 H9          18.4310   -18.1450    18.0320 hc         1 U7H       0.061367
     44 H10         18.5570   -18.0560    16.2750 hc         1 U7H       0.061367
     45 H11         17.5900   -19.3220    17.0260 hc         1 U7H       0.061367
     46 H12         18.7010   -22.8910    17.1920 h4         1 U7H       0.167000
     47 H13         17.6850   -25.1680    17.6780 ha         1 U7H       0.128500
     48 H14         16.3880   -27.1180    16.9530 ha         1 U7H       0.129000
     49 H15         13.9190   -26.9830    16.7770 ha         1 U7H       0.130000
     50 H16         14.0700   -22.8850    17.9800 ha         1 U7H       0.128500
     51 H17         25.3680   -21.3930    11.0930 ha         1 U7H       0.135000
     52 H18         26.5950   -19.6250    16.6370 ha         1 U7H       0.150000
     53 H19         29.0080   -19.2250    16.7930 h4         1 U7H       0.019100
     54 H20         29.6150   -20.1420    12.8350 h4         1 U7H       0.019100
     55 H21         24.1080   -18.8700    17.8070 h1         1 U7H       0.061200
     56 H22         23.1570   -17.5250    17.1780 h1         1 U7H       0.061200
     57 H23         20.1650   -21.1950    15.9520 ho         1 U7H       0.400000
     58 H24         15.3830   -20.8470    20.8760 hc         1 U7H       0.049700
     59 H25         14.3830   -21.1160    19.4550 hc         1 U7H       0.049700
     60 H26         14.8630   -22.4800    20.4500 hc         1 U7H       0.049700
     61 H27         12.7750   -24.8490    17.3050 ha         1 U7H       0.129000
     62 H28         27.7720   -20.8920    11.3730 ha         1 U7H       0.138000
     63 H29         23.7930   -21.0220    12.9310 ha         1 U7H       0.133000
@<TRIPOS>BOND
     1     1     2 1   
     2     1    25 1   
     3     1    35 1   
     4     1    36 1   
     5     2     3 1   
     6     2     8 1   
     7     2    24 1   
     8     3     4 2   
     9     3    21 1   
    10     5    22 1   
    11     5    23 1   
    12     5    37 1   
    13     5    38 1   
    14     6     7 1   
    15     6    23 1   
    16     6    39 1   
    17     6    40 1   
    18     7    21 1   
    19     7    41 1   
    20     7    42 1   
    21     8    43 1   
    22     8    44 1   
    23     8    45 1   
    24     9    10 2   
    25     9    25 1   
    26     9    46 1   
    27    10    11 1   
    28    10    27 1   
    29    11    12 ar  
    30    11    15 ar  
    31    12    13 ar  
    32    12    47 1   
    33    13    14 ar  
    34    13    48 1   
    35    14    29 ar  
    36    14    49 1   
    37    15    29 ar  
    38    15    50 1   
    39    16    31 ar  
    40    16    32 ar  
    41    16    51 1   
    42    17    18 ar  
    43    17    30 ar  
    44    17    33 ar  
    45    18    19 ar  
    46    18    52 1   
    47    19    34 ar  
    48    19    53 1   
    49    20    33 ar  
    50    20    34 ar  
    51    20    54 1   
    52    21    22 1   
    53    22    55 1   
    54    22    56 1   
    55    23    30 1   
    56    24    57 1   
    57    25    26 1   
    58    26    27 2   
    59    27    28 1   
    60    28    58 1   
    61    28    59 1   
    62    28    60 1   
    63    29    61 1   
    64    30    32 ar  
    65    31    33 ar  
    66    31    62 1   
    67    32    63 1   
@<TRIPOS>SUBSTRUCTURE
     1 U7H         1 TEMP              0 ****  ****    0 ROOT
