@<TRIPOS>MOLECULE
U7I
   31    32     1     0     0
SMALL
No Charge or Current Charge


@<TRIPOS>ATOM
      1 C01        156.6040   137.8700   135.8390 c3         1 U7I      -0.108100
      2 C02        155.7560   137.1830   136.9430 c5         1 U7I       0.172000
      3 C03        156.4680   137.0900   138.3380 c5         1 U7I       0.116300
      4 C04        155.2310   136.7730   139.2360 c5         1 U7I       0.127300
      5 C06        154.3800   137.8550   137.3460 c5         1 U7I       0.314700
      6 C08        155.0750   140.2410   137.7360 cc         1 U7I       0.007600
      7 C09        155.0900   141.5530   137.3240 cd         1 U7I      -0.389200
      8 C10        154.3760   141.9990   136.1250 c          1 U7I       0.590200
      9 C13        153.6580   139.6810   135.8210 c          1 U7I       0.619000
     10 C15        155.4440   136.9080   140.7710 c3         1 U7I       0.159600
     11 F18        155.4890   135.8940   136.4570 f          1 U7I      -0.241000
     12 N07        154.3590   139.3030   136.9830 n          1 U7I      -0.328000
     13 N12        153.7190   140.9980   135.4860 ns         1 U7I      -0.469500
     14 O05        154.2290   137.7110   138.7790 os         1 U7I      -0.440000
     15 O11        154.3620   143.1500   135.7270 o          1 U7I      -0.524000
     16 O14        153.0360   138.8950   135.1280 o          1 U7I      -0.558000
     17 O16        156.0780   138.1560   141.1180 oh         1 U7I      -0.734000
     18 O17        157.5000   136.0850   138.4030 oh         1 U7I      -0.685000
     19 H011       156.9400   138.8680   136.1440 hc         1 U7I       0.062700
     20 H012       157.5000   137.2800   135.6140 hc         1 U7I       0.062700
     21 H013       156.0330   137.9730   134.9090 hc         1 U7I       0.062700
     22 H031       156.8910   138.0690   138.6030 h1         1 U7I       0.065700
     23 H041       154.8630   135.7560   139.0360 h1         1 U7I       0.083700
     24 H061       153.5480   137.3580   136.8300 h2         1 U7I       0.125700
     25 H081       155.5550   139.8440   138.6280 h4         1 U7I       0.234000
     26 H091       155.6180   142.3300   137.8650 ha         1 U7I       0.222000
     27 H152       154.4670   136.8200   141.2670 h1         1 U7I       0.039200
     28 H151       156.0600   136.0650   141.1110 h1         1 U7I       0.039200
     29 H121       153.2160   141.2620   134.6550 hn         1 U7I       0.342500
     30 H161       156.0810   138.2140   142.1030 ho         1 U7I       0.516000
     31 H171       158.0010   136.2350   139.2390 ho         1 U7I       0.514000
@<TRIPOS>BOND
     1     1     2 1   
     2     1    19 1   
     3     1    20 1   
     4     1    21 1   
     5     2     3 1   
     6     2     5 1   
     7     2    11 1   
     8     3     4 1   
     9     3    18 1   
    10     3    22 1   
    11     4    10 1   
    12     4    14 1   
    13     4    23 1   
    14     5    12 1   
    15     5    14 1   
    16     5    24 1   
    17     6     7 2   
    18     6    12 1   
    19     6    25 1   
    20     7     8 1   
    21     7    26 1   
    22     8    13 1   
    23     8    15 2   
    24     9    12 1   
    25     9    13 1   
    26     9    16 2   
    27    10    17 1   
    28    10    27 1   
    29    10    28 1   
    30    13    29 1   
    31    17    30 1   
    32    18    31 1   
@<TRIPOS>SUBSTRUCTURE
     1 U7I         1 TEMP              0 ****  ****    0 ROOT
