@<TRIPOS>MOLECULE
U7I
   31    32     1     0     0
SMALL
abcg2


@<TRIPOS>ATOM
      1 C01        156.5460   137.6940   135.7870 c3         1 U7I      -0.108100
      2 C02        155.7350   137.1000   136.9090 c5         1 U7I       0.172000
      3 C03        156.4390   137.0190   138.2580 c5         1 U7I       0.116300
      4 C04        155.2590   136.8050   139.2080 c5         1 U7I       0.127300
      5 C06        154.4110   137.7990   137.2800 c5         1 U7I       0.314700
      6 C08        154.8860   140.1400   137.9160 cc         1 U7I       0.007600
      7 C09        154.9100   141.4640   137.6900 cd         1 U7I      -0.389200
      8 C10        154.3960   141.9920   136.4500 c          1 U7I       0.590200
      9 C13        153.8820   139.6580   135.7970 c          1 U7I       0.619000
     10 C15        155.4860   137.1980   140.6480 c3         1 U7I       0.159600
     11 F18        155.3720   135.8000   136.5440 f          1 U7I      -0.241000
     12 N07        154.3990   139.2400   137.0090 n          1 U7I      -0.328000
     13 N12        153.9050   141.0110   135.5990 ns         1 U7I      -0.469500
     14 O05        154.2080   137.5880   138.6420 os         1 U7I      -0.440000
     15 O11        154.3630   143.1630   136.1270 o          1 U7I      -0.524000
     16 O14        153.4430   138.8880   134.9680 o          1 U7I      -0.558000
     17 O16        155.9700   138.5170   140.7140 oh         1 U7I      -0.734000
     18 O17        157.3920   136.0020   138.2760 oh         1 U7I      -0.685000
     19 H011       156.8740   138.7040   136.0270 hc         1 U7I       0.062700
     20 H012       157.4380   137.0900   135.6230 hc         1 U7I       0.062700
     21 H013       155.9800   137.7240   134.8570 hc         1 U7I       0.062700
     22 H031       156.8940   137.9990   138.4510 h1         1 U7I       0.065700
     23 H041       154.9790   135.7440   139.2020 h1         1 U7I       0.083700
     24 H061       153.5970   137.3690   136.6940 h2         1 U7I       0.125700
     25 H081       155.2450   139.7340   138.8510 h4         1 U7I       0.234000
     26 H091       155.3010   142.1380   138.4350 ha         1 U7I       0.222000
     27 H152       154.5480   137.0770   141.2020 h1         1 U7I       0.039200
     28 H151       156.1970   136.4770   141.0720 h1         1 U7I       0.039200
     29 H121       153.5300   141.3220   134.7100 hn         1 U7I       0.342500
     30 H161       156.0210   138.7830   141.6370 ho         1 U7I       0.516000
     31 H171       158.0210   136.1810   138.9820 ho         1 U7I       0.514000
@<TRIPOS>BOND
     1     1     2 1   
     2     1    19 1   
     3     1    20 1   
     4     1    21 1   
     5     2     3 1   
     6     2     5 1   
     7     2    11 1   
     8     3     4 1   
     9     3    18 1   
    10     3    22 1   
    11     4    10 1   
    12     4    14 1   
    13     4    23 1   
    14     5    12 1   
    15     5    14 1   
    16     5    24 1   
    17     6     7 2   
    18     6    12 1   
    19     6    25 1   
    20     7     8 1   
    21     7    26 1   
    22     8    13 1   
    23     8    15 2   
    24     9    12 1   
    25     9    13 1   
    26     9    16 2   
    27    10    17 1   
    28    10    27 1   
    29    10    28 1   
    30    13    29 1   
    31    17    30 1   
    32    18    31 1   
@<TRIPOS>SUBSTRUCTURE
     1 U7I         1 TEMP              0 ****  ****    0 ROOT
