@<TRIPOS>MOLECULE
U7J
   75    78     1     0     0
SMALL
No Charge or Current Charge


@<TRIPOS>ATOM
      1 C10        -24.2400     7.6670    11.2960 c          1 U7J       0.597100
      2 C11        -22.2570     6.9710    12.7450 c3         1 U7J       0.150300
      3 C13        -23.2800     8.3510    10.2540 c3         1 U7J       0.112800
      4 C14        -21.6320     8.3230    13.0790 ca         1 U7J      -0.093300
      5 C39        -23.8390     9.3660     6.7210 c          1 U7J       0.731000
      6 C16        -23.8200    10.6850    10.9190 c3         1 U7J       0.193800
      7 C01        -25.6220     2.7870    16.3120 ca         1 U7J      -0.010000
      8 C02        -24.9030     3.4070    15.2750 ca         1 U7J      -0.131000
      9 C03        -25.5670     4.1980    14.3180 ca         1 U7J      -0.006300
     10 C04        -26.9620     4.3630    14.4090 ca         1 U7J      -0.131000
     11 C05        -27.6880     3.7470    15.4440 ca         1 U7J      -0.010000
     12 C06        -27.0190     2.9570    16.4010 ca         1 U7J      -0.282500
     13 C07        -24.7810     4.8720    13.2030 c3         1 U7J      -0.072100
     14 C08        -24.6100     6.3850    13.4420 c3         1 U7J       0.100000
     15 C17        -22.6560    10.2660     8.7710 c3         1 U7J       0.197800
     16 C18        -24.5100    12.0170    10.5410 c3         1 U7J      -0.046100
     17 C19        -25.0110    12.7770    11.7630 ca         1 U7J      -0.055300
     18 C20        -24.3080    13.8980    12.2490 ca         1 U7J      -0.110500
     19 C21        -24.7800    14.5970    13.3740 ca         1 U7J      -0.118500
     20 C22        -25.9560    14.1800    14.0200 ca         1 U7J      -0.131000
     21 C23        -26.6620    13.0640    13.5410 ca         1 U7J      -0.118500
     22 C24        -26.1910    12.3650    12.4150 ca         1 U7J      -0.110500
     23 C25        -22.5010     9.4480     7.4700 c3         1 U7J      -0.210400
     24 C26        -22.3070     9.2530    13.8980 ca         1 U7J      -0.084000
     25 C27        -21.7370    10.5120    14.1570 ca         1 U7J      -0.104000
     26 C28        -20.4850    10.8510    13.6040 ca         1 U7J      -0.034000
     27 C29        -19.7980     9.9200    12.7940 ca         1 U7J      -0.037000
     28 C30        -20.3720     8.6610    12.5380 ca         1 U7J      -0.098000
     29 C31        -19.9110    12.1130    13.8550 ca         1 U7J      -0.097000
     30 C32        -18.6590    12.4440    13.3000 ca         1 U7J      -0.111000
     31 C33        -17.9770    11.5170    12.4920 ca         1 U7J      -0.111000
     32 C34        -18.5450    10.2560    12.2390 ca         1 U7J      -0.097000
     33 N09        -23.7100     7.0240    12.4500 n          1 U7J      -0.426800
     34 N15        -23.6130     9.7430     9.7840 n3         1 U7J      -0.688600
     35 N38        -28.2250     0.6870    17.1040 n8         1 U7J      -1.003100
     36 O12        -25.4540     7.6740    11.1110 o          1 U7J      -0.555100
     37 O36        -27.0610     1.9290    18.8830 o          1 U7J      -0.551000
     38 O37        -29.2610     2.7640    17.8510 o          1 U7J      -0.551000
     39 O40        -24.1460    10.3000     5.9940 o          1 U7J      -0.738000
     40 O41        -24.5180     8.3560     6.8440 o          1 U7J      -0.738000
     41 S35        -27.9320     2.1690    17.7320 sy         1 U7J       1.125600
     42 H111       -22.0810     6.2930    13.5910 h1         1 U7J       0.054200
     43 H112       -21.7440     6.5270    11.8810 h1         1 U7J       0.054200
     44 H131       -23.2700     7.6610     9.4010 h1         1 U7J       0.039700
     45 H132       -22.2570     8.3540    10.6370 h1         1 U7J       0.039700
     46 H162       -24.4520    10.2070    11.6780 h1         1 U7J       0.010700
     47 H161       -22.8600    10.9090    11.4040 h1         1 U7J       0.010700
     48 H011       -25.0890     2.1790    17.0410 ha         1 U7J       0.131500
     49 H021       -23.8260     3.2700    15.2180 ha         1 U7J       0.123500
     50 H041       -27.4870     4.9730    13.6760 ha         1 U7J       0.123500
     51 H051       -28.7670     3.8910    15.4970 ha         1 U7J       0.131500
     52 H071       -25.2850     4.7200    12.2410 hc         1 U7J       0.067200
     53 H072       -23.7910     4.4100    13.1040 hc         1 U7J       0.067200
     54 H081       -24.1930     6.5400    14.4460 h1         1 U7J       0.058700
     55 H082       -25.5940     6.8710    13.4320 h1         1 U7J       0.058700
     56 H171       -21.6630    10.3570     9.2320 h1         1 U7J       0.014200
     57 H172       -22.9530    11.2780     8.4700 h1         1 U7J       0.014200
     58 H182       -23.8190    12.6420     9.9650 hc         1 U7J       0.085700
     59 H181       -25.3550    11.7980     9.8760 hc         1 U7J       0.085700
     60 H201       -23.3970    14.2290    11.7560 ha         1 U7J       0.116000
     61 H211       -24.2340    15.4630    13.7440 ha         1 U7J       0.099500
     62 H221       -26.3210    14.7220    14.8900 ha         1 U7J       0.097000
     63 H231       -27.5730    12.7410    14.0390 ha         1 U7J       0.099500
     64 H241       -26.7440    11.5030    12.0490 ha         1 U7J       0.116000
     65 H252       -22.1220     8.4540     7.7340 hc         1 U7J       0.015200
     66 H251       -21.7830    10.0320     6.8800 hc         1 U7J       0.015200
     67 H261       -23.2790     9.0070    14.3250 ha         1 U7J       0.125000
     68 H271       -22.2720    11.2230    14.7830 ha         1 U7J       0.114000
     69 H301       -19.8440     7.9490    11.9070 ha         1 U7J       0.109000
     70 H311       -20.4340    12.8350    14.4780 ha         1 U7J       0.111000
     71 H321       -18.2170    13.4190    13.4970 ha         1 U7J       0.108000
     72 H331       -17.0090    11.7740    12.0620 ha         1 U7J       0.109000
     73 H341       -18.0110     9.5430    11.6130 ha         1 U7J       0.110000
     74 H382       -29.2320     0.6210    17.2300 hn         1 U7J       0.469000
     75 H381       -28.1140     0.8520    16.1060 hn         1 U7J       0.469000
@<TRIPOS>BOND
     1     1     3 1   
     2     1    33 1   
     3     1    36 2   
     4     2     4 1   
     5     2    33 1   
     6     2    42 1   
     7     2    43 1   
     8     3    34 1   
     9     3    44 1   
    10     3    45 1   
    11     4    24 ar  
    12     4    28 ar  
    13     5    23 1   
    14     5    39 1   
    15     5    40 1   
    16     6    16 1   
    17     6    34 1   
    18     6    46 1   
    19     6    47 1   
    20     7     8 ar  
    21     7    12 ar  
    22     7    48 1   
    23     8     9 ar  
    24     8    49 1   
    25     9    10 ar  
    26     9    13 1   
    27    10    11 ar  
    28    10    50 1   
    29    11    12 ar  
    30    11    51 1   
    31    12    41 1   
    32    13    14 1   
    33    13    52 1   
    34    13    53 1   
    35    14    33 1   
    36    14    54 1   
    37    14    55 1   
    38    15    23 1   
    39    15    34 1   
    40    15    56 1   
    41    15    57 1   
    42    16    17 1   
    43    16    58 1   
    44    16    59 1   
    45    17    18 ar  
    46    17    22 ar  
    47    18    19 ar  
    48    18    60 1   
    49    19    20 ar  
    50    19    61 1   
    51    20    21 ar  
    52    20    62 1   
    53    21    22 ar  
    54    21    63 1   
    55    22    64 1   
    56    23    65 1   
    57    23    66 1   
    58    24    25 ar  
    59    24    67 1   
    60    25    26 ar  
    61    25    68 1   
    62    26    27 ar  
    63    26    29 ar  
    64    27    28 ar  
    65    27    32 ar  
    66    28    69 1   
    67    29    30 ar  
    68    29    70 1   
    69    30    31 ar  
    70    30    71 1   
    71    31    32 ar  
    72    31    72 1   
    73    32    73 1   
    74    35    41 1   
    75    35    74 1   
    76    35    75 1   
    77    37    41 2   
    78    38    41 2   
@<TRIPOS>SUBSTRUCTURE
     1 U7J         1 TEMP              0 ****  ****    0 ROOT
