@<TRIPOS>MOLECULE
U7J
   75    78     1     0     0
SMALL
bcc


@<TRIPOS>ATOM
      1 C10        -24.2160     8.6850    11.0860 c          1 U7J       0.664100
      2 C11        -22.0120     7.7070    11.7150 c3         1 U7J       0.150300
      3 C13        -23.5160     9.5060    10.0050 c3         1 U7J       0.112800
      4 C14        -21.1990     8.0950    12.9220 ca         1 U7J      -0.093300
      5 C39        -25.5220     9.2360     6.6700 c          1 U7J       0.941600
      6 C16        -24.7870    11.5380    10.1350 c3         1 U7J       0.193800
      7 C01        -23.9770     3.8980    15.8610 ca         1 U7J      -0.028000
      8 C02        -23.7140     4.5320    14.6630 ca         1 U7J      -0.149000
      9 C03        -24.7500     4.9880    13.8450 ca         1 U7J      -0.006300
     10 C04        -26.0630     4.7790    14.2510 ca         1 U7J      -0.149000
     11 C05        -26.3470     4.1430    15.4510 ca         1 U7J      -0.028000
     12 C06        -25.3000     3.7130    16.2500 ca         1 U7J      -0.282500
     13 C07        -24.4270     5.7630    12.6030 c3         1 U7J      -0.072100
     14 C08        -24.0480     7.1990    12.9880 c3         1 U7J       0.100000
     15 C17        -23.9510    10.7720     8.0040 c3         1 U7J       0.197800
     16 C18        -26.2150    12.0130     9.8630 c3         1 U7J      -0.046100
     17 C19        -26.5740    13.1960    10.7140 ca         1 U7J      -0.055300
     18 C20        -26.2100    14.4870    10.3350 ca         1 U7J      -0.128500
     19 C21        -26.5130    15.5790    11.1360 ca         1 U7J      -0.136500
     20 C22        -27.1890    15.3970    12.3360 ca         1 U7J      -0.149000
     21 C23        -27.5540    14.1160    12.7280 ca         1 U7J      -0.136500
     22 C24        -27.2460    13.0270    11.9230 ca         1 U7J      -0.128500
     23 C25        -24.0700     9.6630     6.9720 c3         1 U7J      -0.210400
     24 C26        -21.1320     9.4510    13.3250 ca         1 U7J      -0.102000
     25 C27        -20.4230     9.8160    14.4330 ca         1 U7J      -0.122000
     26 C28        -19.7470     8.8480    15.2150 ca         1 U7J      -0.034000
     27 C29        -19.8140     7.4870    14.8210 ca         1 U7J      -0.037000
     28 C30        -20.5490     7.1450    13.6620 ca         1 U7J      -0.116000
     29 C31        -19.0170     9.1910    16.3770 ca         1 U7J      -0.115000
     30 C32        -18.3890     8.2250    17.1150 ca         1 U7J      -0.129000
     31 C33        -18.4610     6.8710    16.7270 ca         1 U7J      -0.129000
     32 C34        -19.1570     6.5110    15.6040 ca         1 U7J      -0.115000
     33 N09        -23.4310     7.9500    11.9140 n          1 U7J      -0.493800
     34 N15        -24.4300    10.3850     9.3250 n3         1 U7J      -0.688600
     35 N38        -25.1980     1.3860    17.5020 n8         1 U7J      -0.892700
     36 O12        -25.4300     8.7010    11.2110 o          1 U7J      -0.555100
     37 O36        -24.6730     3.4380    18.7960 o          1 U7J      -0.621800
     38 O37        -27.0500     3.1060    18.0930 o          1 U7J      -0.621800
     39 O40        -26.3680    10.1490     6.5760 o          1 U7J      -0.843300
     40 O41        -25.7250     8.0160     6.5090 o          1 U7J      -0.843300
     41 S35        -25.6290     2.9530    17.8110 sy         1 U7J       1.267200
     42 H111       -21.8500     6.6480    11.4950 h1         1 U7J       0.054200
     43 H112       -21.6600     8.2520    10.8420 h1         1 U7J       0.054200
     44 H131       -23.0820     8.8070     9.2840 h1         1 U7J       0.039700
     45 H132       -22.6620    10.0510    10.4390 h1         1 U7J       0.039700
     46 H162       -24.7160    11.2770    11.1920 h1         1 U7J       0.010700
     47 H161       -24.0800    12.3700     9.9840 h1         1 U7J       0.010700
     48 H011       -23.1600     3.5570    16.4830 ha         1 U7J       0.149500
     49 H021       -22.6850     4.6850    14.3570 ha         1 U7J       0.141500
     50 H041       -26.8800     5.1240    13.6280 ha         1 U7J       0.141500
     51 H051       -27.3740     3.9950    15.7540 ha         1 U7J       0.149500
     52 H071       -25.2750     5.7710    11.9170 hc         1 U7J       0.067200
     53 H072       -23.5910     5.2890    12.0820 hc         1 U7J       0.067200
     54 H081       -23.3420     7.1690    13.8200 h1         1 U7J       0.058700
     55 H082       -24.9290     7.7310    13.3430 h1         1 U7J       0.058700
     56 H171       -22.9110    11.1370     8.0510 h1         1 U7J       0.014200
     57 H172       -24.5520    11.6150     7.6630 h1         1 U7J       0.014200
     58 H182       -26.3300    12.2650     8.8060 hc         1 U7J       0.085700
     59 H181       -26.8940    11.1840    10.0670 hc         1 U7J       0.085700
     60 H201       -25.6870    14.6380     9.3970 ha         1 U7J       0.134000
     61 H211       -26.2260    16.5750    10.8220 ha         1 U7J       0.117500
     62 H221       -27.4310    16.2480    12.9600 ha         1 U7J       0.115000
     63 H231       -28.0840    13.9640    13.6600 ha         1 U7J       0.117500
     64 H241       -27.5360    12.0300    12.2340 ha         1 U7J       0.134000
     65 H252       -23.4730     8.7930     7.2560 hc         1 U7J       0.015200
     66 H251       -23.6240    10.0320     6.0410 hc         1 U7J       0.015200
     67 H261       -21.6510    10.2040    12.7430 ha         1 U7J       0.143000
     68 H271       -20.3730    10.8570    14.7300 ha         1 U7J       0.132000
     69 H301       -20.6050     6.1010    13.3700 ha         1 U7J       0.127000
     70 H311       -18.9650    10.2310    16.6760 ha         1 U7J       0.129000
     71 H321       -17.8340     8.4960    18.0040 ha         1 U7J       0.126000
     72 H331       -17.9620     6.1160    17.3210 ha         1 U7J       0.127000
     73 H341       -19.2150     5.4710    15.3040 ha         1 U7J       0.128000
     74 H382       -25.0440     0.8660    18.3610 hn         1 U7J       0.413800
     75 H381       -25.8730     0.9030    16.9160 hn         1 U7J       0.413800
@<TRIPOS>BOND
     1     1     3 1   
     2     1    33 1   
     3     1    36 2   
     4     2     4 1   
     5     2    33 1   
     6     2    42 1   
     7     2    43 1   
     8     3    34 1   
     9     3    44 1   
    10     3    45 1   
    11     4    24 ar  
    12     4    28 ar  
    13     5    23 1   
    14     5    39 1   
    15     5    40 1   
    16     6    16 1   
    17     6    34 1   
    18     6    46 1   
    19     6    47 1   
    20     7     8 ar  
    21     7    12 ar  
    22     7    48 1   
    23     8     9 ar  
    24     8    49 1   
    25     9    10 ar  
    26     9    13 1   
    27    10    11 ar  
    28    10    50 1   
    29    11    12 ar  
    30    11    51 1   
    31    12    41 1   
    32    13    14 1   
    33    13    52 1   
    34    13    53 1   
    35    14    33 1   
    36    14    54 1   
    37    14    55 1   
    38    15    23 1   
    39    15    34 1   
    40    15    56 1   
    41    15    57 1   
    42    16    17 1   
    43    16    58 1   
    44    16    59 1   
    45    17    18 ar  
    46    17    22 ar  
    47    18    19 ar  
    48    18    60 1   
    49    19    20 ar  
    50    19    61 1   
    51    20    21 ar  
    52    20    62 1   
    53    21    22 ar  
    54    21    63 1   
    55    22    64 1   
    56    23    65 1   
    57    23    66 1   
    58    24    25 ar  
    59    24    67 1   
    60    25    26 ar  
    61    25    68 1   
    62    26    27 ar  
    63    26    29 ar  
    64    27    28 ar  
    65    27    32 ar  
    66    28    69 1   
    67    29    30 ar  
    68    29    70 1   
    69    30    31 ar  
    70    30    71 1   
    71    31    32 ar  
    72    31    72 1   
    73    32    73 1   
    74    35    41 1   
    75    35    74 1   
    76    35    75 1   
    77    37    41 2   
    78    38    41 2   
@<TRIPOS>SUBSTRUCTURE
     1 U7J         1 TEMP              0 ****  ****    0 ROOT
