@<TRIPOS>MOLECULE
U7K
   64    69     1     0     0
SMALL
abcg2


@<TRIPOS>ATOM
      1 C1          14.9380   -25.5730    17.8790 ca         1 U7K      -0.074000
      2 C2          13.7060   -25.0950    18.3150 ca         1 U7K      -0.131000
      3 C3          13.5580   -23.7700    18.7110 ca         1 U7K      -0.047000
      4 C8          18.2050   -22.8000    17.6300 c6         1 U7K       0.080600
      5 C9          18.0990   -23.9910    16.6870 c6         1 U7K      -0.092400
      6 C10         17.4110   -25.1790    17.3500 c6         1 U7K      -0.024100
      7 C12         16.5590   -21.2500    18.7250 cc         1 U7K       0.578700
      8 C13         18.5940   -19.9240    18.9340 c3         1 U7K       0.119800
      9 C14         18.9290   -18.8370    17.8830 c3         1 U7K       0.113000
     10 C15         20.4200   -18.4650    18.0500 c          1 U7K       0.616100
     11 C19         24.2960   -20.5780    14.7380 ca         1 U7K       0.273000
     12 C20         25.6770   -20.7560    15.0600 ca         1 U7K      -0.014000
     13 C22         23.9020   -20.7480    13.4300 ca         1 U7K      -0.148000
     14 C24         26.1860   -20.7200    16.3770 ca         1 U7K      -0.134000
     15 C27         24.8280   -21.0550    12.4120 ca         1 U7K      -0.092000
     16 C30         27.5260   -20.8950    16.5870 ca         1 U7K       0.312900
     17 C31         21.2820   -20.5490    16.9120 c6         1 U7K       0.095500
     18 C32         22.7820   -18.8100    17.6330 c6         1 U7K       0.095500
     19 C4          14.6690   -22.9460    18.6640 ca         1 U7K      -0.190000
     20 C5          15.8990   -23.4300    18.2320 ca         1 U7K       0.019800
     21 C6          16.0580   -24.7510    17.8340 ca         1 U7K      -0.103300
     22 N7          16.9130   -22.4860    18.2330 na         1 U7K      -0.269600
     23 S11         14.8100   -21.2630    19.0920 ss         1 U7K       0.028800
     24 O16         18.7210   -19.2970    16.5630 oh         1 U7K      -0.669000
     25 C17         18.0780   -17.5900    18.1220 c3         1 U7K      -0.099100
     26 O18         20.6940   -17.4770    18.7170 o          1 U7K      -0.598100
     27 N21         23.4050   -20.2700    15.7750 nh         1 U7K      -0.782400
     28 C23         26.6010   -21.0260    14.0240 ca         1 U7K      -0.086000
     29 C25         22.0150   -20.6310    15.5850 c6         1 U7K       0.170300
     30 C26         23.5060   -18.9150    16.3050 c6         1 U7K       0.170300
     31 C28         26.1600   -21.1720    12.6900 ca         1 U7K      -0.100000
     32 C29         27.9630   -21.1770    14.3750 ca         1 U7K       0.354900
     33 N33         28.4200   -21.1070    15.5960 nb         1 U7K      -0.659000
     34 N34         21.3930   -19.2180    17.4840 n          1 U7K      -0.400800
     35 N35         17.1820   -20.1810    18.9760 n2         1 U7K      -0.693900
     36 H1          15.0320   -26.6040    17.5630 ha         1 U7K       0.116000
     37 H2          12.8510   -25.7580    18.3420 ha         1 U7K       0.119000
     38 H3          12.6000   -23.3950    19.0460 ha         1 U7K       0.126000
     39 H4          18.9430   -23.0010    18.4090 h1         1 U7K       0.052200
     40 H5          18.5350   -21.9320    17.0630 h1         1 U7K       0.052200
     41 H6          19.1080   -24.2530    16.3700 hc         1 U7K       0.056700
     42 H7          17.5440   -23.7010    15.7920 hc         1 U7K       0.056700
     43 H8          17.3180   -26.0100    16.6500 hc         1 U7K       0.057200
     44 H9          18.0180   -25.5370    18.1870 hc         1 U7K       0.057200
     45 H10         19.2230   -20.8040    18.7790 h1         1 U7K       0.054200
     46 H11         18.8790   -19.5200    19.9110 h1         1 U7K       0.054200
     47 H12         22.8610   -20.6330    13.1570 ha         1 U7K       0.115000
     48 H13         25.5280   -20.5780    17.2230 ha         1 U7K       0.132000
     49 H14         24.4690   -21.1770    11.3990 ha         1 U7K       0.115000
     50 H15         27.9280   -20.8720    17.5930 h4         1 U7K       0.019100
     51 H16         20.2490   -20.8200    16.7470 h1         1 U7K       0.060700
     52 H17         21.7210   -21.2710    17.6080 h1         1 U7K       0.060700
     53 H18         23.2740   -19.4500    18.3750 h1         1 U7K       0.060700
     54 H19         22.8310   -17.7860    17.9910 h1         1 U7K       0.060700
     55 H20         17.7770   -19.4580    16.4470 ho         1 U7K       0.458000
     56 H21         18.1510   -17.2340    19.1470 hc         1 U7K       0.054367
     57 H22         18.3750   -16.7810    17.4550 hc         1 U7K       0.054367
     58 H23         17.0310   -17.8210    17.9290 hc         1 U7K       0.054367
     59 H24         21.5070   -19.9800    14.8570 h1         1 U7K       0.049450
     60 H25         21.9500   -21.6560    15.2170 h1         1 U7K       0.049450
     61 H26         24.5510   -18.6440    16.4530 h1         1 U7K       0.049450
     62 H27         23.0790   -18.1890    15.5980 h1         1 U7K       0.049450
     63 H28         26.8790   -21.3880    11.9100 ha         1 U7K       0.119000
     64 H29         28.6850   -21.3670    13.5850 h4         1 U7K       0.018100
@<TRIPOS>BOND
     1     1     2 ar  
     2     1    21 ar  
     3     1    36 1   
     4     2     3 ar  
     5     2    37 1   
     6     3    19 ar  
     7     3    38 1   
     8     4     5 1   
     9     4    22 1   
    10     4    39 1   
    11     4    40 1   
    12     5     6 1   
    13     5    41 1   
    14     5    42 1   
    15     6    21 1   
    16     6    43 1   
    17     6    44 1   
    18     7    22 1   
    19     7    23 1   
    20     7    35 2   
    21     8     9 1   
    22     8    35 1   
    23     8    45 1   
    24     8    46 1   
    25     9    10 1   
    26     9    24 1   
    27     9    25 1   
    28    10    26 2   
    29    10    34 1   
    30    11    12 ar  
    31    11    13 ar  
    32    11    27 1   
    33    12    14 ar  
    34    12    28 ar  
    35    13    15 ar  
    36    13    47 1   
    37    14    16 ar  
    38    14    48 1   
    39    15    31 ar  
    40    15    49 1   
    41    16    33 ar  
    42    16    50 1   
    43    17    29 1   
    44    17    34 1   
    45    17    51 1   
    46    17    52 1   
    47    18    30 1   
    48    18    34 1   
    49    18    53 1   
    50    18    54 1   
    51    19    20 ar  
    52    19    23 1   
    53    20    21 ar  
    54    20    22 1   
    55    24    55 1   
    56    25    56 1   
    57    25    57 1   
    58    25    58 1   
    59    27    29 1   
    60    27    30 1   
    61    28    31 ar  
    62    28    32 ar  
    63    29    59 1   
    64    29    60 1   
    65    30    61 1   
    66    30    62 1   
    67    31    63 1   
    68    32    33 ar  
    69    32    64 1   
@<TRIPOS>SUBSTRUCTURE
     1 U7K         1 TEMP              0 ****  ****    0 ROOT
