@<TRIPOS>MOLECULE
U7K
   64    69     1     0     0
SMALL
No Charge or Current Charge


@<TRIPOS>ATOM
      1 C1          14.2790   -25.4780    19.3370 ca         1 U7K      -0.074000
      2 C2          13.2940   -25.1970    18.3650 ca         1 U7K      -0.131000
      3 C3          13.4860   -24.1510    17.4400 ca         1 U7K      -0.047000
      4 C8          17.8740   -23.0640    19.3430 c6         1 U7K       0.080600
      5 C9          17.9270   -24.5210    19.8740 c6         1 U7K      -0.092400
      6 C10         16.5560   -24.9880    20.4130 c6         1 U7K      -0.024100
      7 C12         16.5880   -21.8450    17.4110 cc         1 U7K       0.578700
      8 C13         18.6290   -20.4430    17.9170 c3         1 U7K       0.119800
      9 C14         19.0670   -19.0000    17.5060 c3         1 U7K       0.113000
     10 C15         20.6130   -18.7750    17.7960 c          1 U7K       0.616100
     11 C19         24.6260   -19.7070    14.1260 ca         1 U7K       0.273000
     12 C20         25.8250   -20.4550    14.2400 ca         1 U7K      -0.014000
     13 C22         24.4000   -18.9630    12.9510 ca         1 U7K      -0.148000
     14 C24         26.1150   -21.2440    15.3710 ca         1 U7K      -0.134000
     15 C27         25.3440   -18.9520    11.9100 ca         1 U7K      -0.092000
     16 C30         27.3190   -21.9640    15.4240 ca         1 U7K       0.312900
     17 C31         21.4150   -20.4880    16.0430 c6         1 U7K       0.095500
     18 C32         23.0260   -19.5620    17.6510 c6         1 U7K       0.095500
     19 C4          14.6710   -23.4020    17.5090 ca         1 U7K      -0.190000
     20 C5          15.6370   -23.6740    18.4560 ca         1 U7K       0.019800
     21 C6          15.4640   -24.7140    19.3850 ca         1 U7K      -0.103300
     22 N7          16.7420   -22.8390    18.3980 na         1 U7K      -0.269600
     23 S11         15.0940   -22.0390    16.4550 ss         1 U7K       0.028800
     24 O16         18.7300   -18.8260    16.1110 oh         1 U7K      -0.669000
     25 C17         18.2000   -17.9600    18.2710 c3         1 U7K      -0.099100
     26 O18         20.9850   -17.8520    18.5160 o          1 U7K      -0.598100
     27 N21         23.6440   -19.6730    15.1810 nh         1 U7K      -0.782400
     28 C23         26.7740   -20.4420    13.1950 ca         1 U7K      -0.086000
     29 C25         22.2010   -19.8760    14.8510 c6         1 U7K       0.170300
     30 C26         23.8560   -18.9330    16.4990 c6         1 U7K       0.170300
     31 C28         26.5320   -19.6890    12.0310 ca         1 U7K      -0.100000
     32 C29         27.9580   -21.1950    13.3350 ca         1 U7K       0.354900
     33 N33         28.2350   -21.9450    14.4290 nb         1 U7K      -0.659000
     34 N34         21.5860   -19.6800    17.2870 n          1 U7K      -0.400800
     35 N35         17.3980   -20.8400    17.1910 n2         1 U7K      -0.693900
     36 H1          14.1210   -26.2870    20.0470 ha         1 U7K       0.116000
     37 H2          12.3830   -25.7890    18.3300 ha         1 U7K       0.119000
     38 H3          12.7290   -23.9280    16.6910 ha         1 U7K       0.126000
     39 H4          17.7710   -22.3680    20.1880 h1         1 U7K       0.052200
     40 H5          18.8280   -22.8600    18.8420 h1         1 U7K       0.052200
     41 H6          18.6930   -24.6090    20.6560 hc         1 U7K       0.056700
     42 H7          18.2370   -25.1880    19.0580 hc         1 U7K       0.056700
     43 H8          16.5950   -26.0580    20.6590 hc         1 U7K       0.057200
     44 H9          16.3200   -24.4560    21.3450 hc         1 U7K       0.057200
     45 H10         19.4350   -21.1520    17.7000 h1         1 U7K       0.054200
     46 H11         18.4720   -20.4580    19.0040 h1         1 U7K       0.054200
     47 H12         23.4910   -18.3770    12.8500 ha         1 U7K       0.115000
     48 H13         25.4160   -21.3110    16.1970 ha         1 U7K       0.132000
     49 H14         25.1560   -18.3690    11.0110 ha         1 U7K       0.115000
     50 H15         27.5580   -22.5790    16.2910 h4         1 U7K       0.019100
     51 H16         20.3650   -20.6030    15.7590 h1         1 U7K       0.060700
     52 H17         21.7980   -21.5020    16.2300 h1         1 U7K       0.060700
     53 H18         23.4190   -20.5660    17.8650 h1         1 U7K       0.060700
     54 H19         23.1590   -18.9690    18.5660 h1         1 U7K       0.060700
     55 H20         18.0090   -19.4910    15.9870 ho         1 U7K       0.458000
     56 H21         18.3590   -18.0380    19.3530 hc         1 U7K       0.054367
     57 H22         18.4520   -16.9380    17.9630 hc         1 U7K       0.054367
     58 H23         17.1310   -18.1150    18.0770 hc         1 U7K       0.054367
     59 H24         21.7400   -18.9150    14.5770 h1         1 U7K       0.049450
     60 H25         22.1010   -20.5470    13.9850 h1         1 U7K       0.049450
     61 H26         24.9200   -18.9470    16.7790 h1         1 U7K       0.049450
     62 H27         23.5640   -17.8790    16.3830 h1         1 U7K       0.049450
     63 H28         27.2610   -19.6760    11.2220 ha         1 U7K       0.119000
     64 H29         28.7090   -21.2020    12.5460 h4         1 U7K       0.018100
@<TRIPOS>BOND
     1     1     2 ar  
     2     1    21 ar  
     3     1    36 1   
     4     2     3 ar  
     5     2    37 1   
     6     3    19 ar  
     7     3    38 1   
     8     4     5 1   
     9     4    22 1   
    10     4    39 1   
    11     4    40 1   
    12     5     6 1   
    13     5    41 1   
    14     5    42 1   
    15     6    21 1   
    16     6    43 1   
    17     6    44 1   
    18     7    22 1   
    19     7    23 1   
    20     7    35 2   
    21     8     9 1   
    22     8    35 1   
    23     8    45 1   
    24     8    46 1   
    25     9    10 1   
    26     9    24 1   
    27     9    25 1   
    28    10    26 2   
    29    10    34 1   
    30    11    12 ar  
    31    11    13 ar  
    32    11    27 1   
    33    12    14 ar  
    34    12    28 ar  
    35    13    15 ar  
    36    13    47 1   
    37    14    16 ar  
    38    14    48 1   
    39    15    31 ar  
    40    15    49 1   
    41    16    33 ar  
    42    16    50 1   
    43    17    29 1   
    44    17    34 1   
    45    17    51 1   
    46    17    52 1   
    47    18    30 1   
    48    18    34 1   
    49    18    53 1   
    50    18    54 1   
    51    19    20 ar  
    52    19    23 1   
    53    20    21 ar  
    54    20    22 1   
    55    24    55 1   
    56    25    56 1   
    57    25    57 1   
    58    25    58 1   
    59    27    29 1   
    60    27    30 1   
    61    28    31 ar  
    62    28    32 ar  
    63    29    59 1   
    64    29    60 1   
    65    30    61 1   
    66    30    62 1   
    67    31    63 1   
    68    32    33 ar  
    69    32    64 1   
@<TRIPOS>SUBSTRUCTURE
     1 U7K         1 TEMP              0 ****  ****    0 ROOT
