@<TRIPOS>MOLECULE
U7L
   31    33     1     0     0
SMALL
No Charge or Current Charge


@<TRIPOS>ATOM
      1 C3          27.2560    65.3580    -5.1090 cc         1 U7L       0.226800
      2 C4          26.0290    65.4770    -4.5020 cd         1 U7L      -0.175300
      3 C5          26.1230    66.6770    -3.7250 cd         1 U7L       0.223500
      4 C6          25.0450    67.3250    -2.8570 c          1 U7L       0.631500
      5 N1          27.3310    67.2330    -3.8280 nc         1 U7L      -0.354300
      6 C9          27.7430    64.3660    -6.0500 cc         1 U7L      -0.178000
      7 C11         26.9810    63.3430    -6.6180 cd         1 U7L      -0.134100
      8 C12         29.0560    63.1680    -7.4640 ca         1 U7L      -0.060200
      9 C13         29.0700    64.2430    -6.6130 ca         1 U7L      -0.066800
     10 C14         30.2370    65.0010    -6.4130 ca         1 U7L      -0.039000
     11 C15         31.4030    64.6280    -7.1150 ca         1 U7L      -0.155000
     12 O2          28.0680    66.3810    -4.7040 os         1 U7L      -0.115700
     13 C16         31.3870    63.5220    -7.9930 ca         1 U7L      -0.103000
     14 C17         30.2030    62.7780    -8.1750 ca         1 U7L      -0.137000
     15 C19         24.8420    64.5510    -4.5870 c3         1 U7L       0.236900
     16 N10         27.7970    62.5920    -7.4900 na         1 U7L      -0.092700
     17 O20         24.0660    64.8260    -5.7580 oh         1 U7L      -0.662000
     18 O7          23.9310    66.8240    -2.7780 o          1 U7L      -0.698500
     19 O8          25.3130    68.3570    -2.2470 o          1 U7L      -0.698500
     20 H1          25.9330    63.0940    -6.5080 h4         1 U7L       0.229000
     21 H2          30.2580    65.8510    -5.7380 ha         1 U7L       0.137000
     22 H3          32.3200    65.1970    -6.9790 ha         1 U7L       0.103000
     23 H4          32.2900    63.2420    -8.5300 ha         1 U7L       0.097000
     24 H5          30.1860    61.9260    -8.8490 ha         1 U7L       0.102000
     25 H6          26.3750    61.1840    -8.1610 h1         1 U7L       0.042700
     26 H7          27.5850    61.6820    -9.3800 h1         1 U7L       0.042700
     27 H8          28.0540    60.5760    -8.0530 h1         1 U7L       0.042700
     28 H9          24.2230    64.6390    -3.6880 h1         1 U7L       0.034200
     29 H10         25.1950    63.5120    -4.5870 h1         1 U7L       0.034200
     30 H11         23.2420    64.2990    -5.6790 ho         1 U7L       0.418000
     31 C18         27.4300    61.4370    -8.3230 c3         1 U7L       0.069900
@<TRIPOS>BOND
     1     1     2 2   
     2     1     6 1   
     3     1    12 1   
     4     2     3 1   
     5     2    15 1   
     6     3     4 1   
     7     3     5 2   
     8     4    18 1   
     9     4    19 1   
    10     5    12 1   
    11     6     7 2   
    12     6     9 1   
    13     7    16 1   
    14     7    20 1   
    15     8     9 ar  
    16     8    14 ar  
    17     8    16 1   
    18     9    10 ar  
    19    10    11 ar  
    20    10    21 1   
    21    11    13 ar  
    22    11    22 1   
    23    13    14 ar  
    24    13    23 1   
    25    14    24 1   
    26    15    17 1   
    27    15    28 1   
    28    15    29 1   
    29    16    31 1   
    30    17    30 1   
    31    25    31 1   
    32    26    31 1   
    33    27    31 1   
@<TRIPOS>SUBSTRUCTURE
     1 U7L         1 TEMP              0 ****  ****    0 ROOT
