@<TRIPOS>MOLECULE
U7L
   31    33     1     0     0
SMALL
abcg2


@<TRIPOS>ATOM
      1 C3          27.1130    65.4540    -5.3020 cc         1 U7L       0.226800
      2 C4          26.0020    65.4760    -4.5110 cd         1 U7L      -0.175300
      3 C5          26.0610    66.7580    -3.8920 cd         1 U7L       0.223500
      4 C6          25.1020    67.4000    -2.8950 c          1 U7L       0.631500
      5 N1          27.1270    67.4090    -4.2690 nc         1 U7L      -0.354300
      6 C9          27.6570    64.4820    -6.2120 cc         1 U7L      -0.178000
      7 C11         26.9310    63.5240    -6.8800 cd         1 U7L      -0.134100
      8 C12         29.0380    63.2050    -7.4970 ca         1 U7L      -0.060200
      9 C13         29.0270    64.2950    -6.6020 ca         1 U7L      -0.066800
     10 C14         30.2390    64.9170    -6.2790 ca         1 U7L      -0.039000
     11 C15         31.4030    64.4450    -6.8530 ca         1 U7L      -0.155000
     12 O2          27.7850    66.6000    -5.1480 os         1 U7L      -0.115700
     13 C16         31.3900    63.3630    -7.7460 ca         1 U7L      -0.103000
     14 C17         30.2090    62.7270    -8.0800 ca         1 U7L      -0.137000
     15 C19         25.0070    64.3800    -4.3680 c3         1 U7L       0.236900
     16 N10         27.7500    62.7610    -7.6440 na         1 U7L      -0.092700
     17 O20         24.0620    64.4610    -5.4230 oh         1 U7L      -0.662000
     18 O7          24.2090    66.6540    -2.4560 o          1 U7L      -0.698500
     19 O8          25.3130    68.5910    -2.6260 o          1 U7L      -0.698500
     20 H1          25.8650    63.3600    -6.8830 h4         1 U7L       0.229000
     21 H2          30.2730    65.7530    -5.5950 ha         1 U7L       0.137000
     22 H3          32.3460    64.9180    -6.6110 ha         1 U7L       0.103000
     23 H4          32.3200    63.0190    -8.1800 ha         1 U7L       0.097000
     24 H5          30.2010    61.8910    -8.7670 ha         1 U7L       0.102000
     25 H6          26.2660    61.5420    -8.4220 h1         1 U7L       0.042700
     26 H7          27.5920    61.8850    -9.5400 h1         1 U7L       0.042700
     27 H8          27.8280    60.7450    -8.2040 h1         1 U7L       0.042700
     28 H9          24.5220    64.4580    -3.3950 h1         1 U7L       0.034200
     29 H10         25.5410    63.4210    -4.3960 h1         1 U7L       0.034200
     30 H11         23.4550    63.7190    -5.3260 ho         1 U7L       0.418000
     31 C18         27.3410    61.6740    -8.5010 c3         1 U7L       0.069900
@<TRIPOS>BOND
     1     1     2 2   
     2     1     6 1   
     3     1    12 1   
     4     2     3 1   
     5     2    15 1   
     6     3     4 1   
     7     3     5 2   
     8     4    18 1   
     9     4    19 1   
    10     5    12 1   
    11     6     7 2   
    12     6     9 1   
    13     7    16 1   
    14     7    20 1   
    15     8     9 ar  
    16     8    14 ar  
    17     8    16 1   
    18     9    10 ar  
    19    10    11 ar  
    20    10    21 1   
    21    11    13 ar  
    22    11    22 1   
    23    13    14 ar  
    24    13    23 1   
    25    14    24 1   
    26    15    17 1   
    27    15    28 1   
    28    15    29 1   
    29    16    31 1   
    30    17    30 1   
    31    25    31 1   
    32    26    31 1   
    33    27    31 1   
@<TRIPOS>SUBSTRUCTURE
     1 U7L         1 TEMP              0 ****  ****    0 ROOT
