@<TRIPOS>MOLECULE
U7P
   55    59     1     0     0
SMALL
bcc


@<TRIPOS>ATOM
      1 C10         30.0730   150.0100    34.8730 c6         1 U7P      -0.042700
      2 C13         30.0940   148.6930    35.6230 c5         1 U7P      -0.066700
      3 C15         27.6340   148.2060    35.1290 c3         1 U7P      -0.079100
      4 C17         28.3670   150.7520    36.6370 c6         1 U7P      -0.072400
      5 C20         29.0440   145.2360    38.5350 ca         1 U7P       0.407200
      6 C22         27.2070   144.7140    39.7710 ca         1 U7P       0.399200
      7 C24         27.0080   146.3580    38.0550 ca         1 U7P      -0.085000
      8 C26         30.6000   147.4050    34.9740 c5         1 U7P      -0.043200
      9 C01         30.9410   152.7840    34.5600 c2         1 U7P      -0.032400
     10 C02         31.6550   153.9110    34.7250 ce         1 U7P      -0.267200
     11 C03         31.1860   155.0660    35.4870 c          1 U7P       0.575300
     12 C05         29.7780   154.9770    36.0050 c6         1 U7P      -0.181400
     13 C06         29.4190   153.5510    36.3910 c6         1 U7P      -0.064400
     14 C07         29.6190   152.5320    35.2580 c6         1 U7P      -0.010800
     15 C08         28.4980   152.6860    34.2160 c3         1 U7P      -0.081100
     16 C09         29.6570   151.1030    35.8770 c6         1 U7P      -0.047700
     17 C11         31.4350   150.3410    34.2800 c6         1 U7P      -0.069400
     18 C12         31.4300   151.7180    33.6280 c6         1 U7P      -0.051200
     19 C14         28.7270   148.3000    36.2090 c5         1 U7P      -0.005800
     20 C16         28.3660   149.3490    37.2570 c6         1 U7P      -0.060400
     21 C18         29.0520   146.8870    36.6800 ce         1 U7P      -0.069400
     22 C19         28.3540   146.1640    37.7460 ca         1 U7P      -0.146100
     23 C23         26.4260   145.6240    39.0760 ca         1 U7P      -0.248300
     24 C25         30.0490   146.3880    35.9360 c2         1 U7P      -0.158200
     25 N21         28.4960   144.5270    39.5090 nb         1 U7P      -0.666000
     26 O04         31.8770   156.0590    35.6370 o          1 U7P      -0.528100
     27 H101        29.3490   149.9590    34.0500 hc         1 U7P       0.054700
     28 H131        30.7550   148.8470    36.4900 hc         1 U7P       0.051700
     29 H153        26.6990   147.8320    35.5480 hc         1 U7P       0.035033
     30 H151        27.4090   149.1710    34.6750 hc         1 U7P       0.035033
     31 H152        27.9230   147.5300    34.3240 hc         1 U7P       0.035033
     32 H171        28.2080   151.4760    37.4370 hc         1 U7P       0.041200
     33 H172        27.5050   150.8470    35.9730 hc         1 U7P       0.041200
     34 H221        26.7800   144.1200    40.5710 h4         1 U7P       0.019100
     35 H241        26.4060   147.0620    37.4970 ha         1 U7P       0.138000
     36 H261        30.2050   147.2530    33.9610 hc         1 U7P       0.053700
     37 H262        31.6880   147.3610    34.8940 hc         1 U7P       0.053700
     38 H021        32.6120   154.0190    34.2240 ha         1 U7P       0.145000
     39 H052        29.6510   155.6550    36.8500 hc         1 U7P       0.069700
     40 H051        29.1160   155.3400    35.2120 hc         1 U7P       0.069700
     41 H061        28.3830   153.5250    36.7330 hc         1 U7P       0.048700
     42 H062        30.0330   153.2510    37.2460 hc         1 U7P       0.048700
     43 H082        27.5180   152.5580    34.6750 hc         1 U7P       0.038033
     44 H083        28.5180   153.6780    33.7640 hc         1 U7P       0.038033
     45 H081        28.5800   151.9610    33.4070 hc         1 U7P       0.038033
     46 H091        30.4620   151.1340    36.6280 hc         1 U7P       0.048700
     47 H111        31.7210   149.5920    33.5390 hc         1 U7P       0.046200
     48 H112        32.1940   150.3090    35.0700 hc         1 U7P       0.046200
     49 H122        32.4200   151.9760    33.2520 hc         1 U7P       0.054200
     50 H121        30.7640   151.6920    32.7570 hc         1 U7P       0.054200
     51 H161        27.3830   149.1620    37.6990 hc         1 U7P       0.045700
     52 H162        29.0900   149.3050    38.0780 hc         1 U7P       0.045700
     53 H231        25.3820   145.7520    39.3260 ha         1 U7P       0.141000
     54 H4          30.4140   145.3690    35.9910 ha         1 U7P       0.140000
     55 H201        30.1050   145.0810    38.3680 h4         1 U7P       0.019100
@<TRIPOS>BOND
     1     1     2 1   
     2     1    16 1   
     3     1    17 1   
     4     1    27 1   
     5     2     8 1   
     6     2    19 1   
     7     2    28 1   
     8     3    19 1   
     9     3    29 1   
    10     3    30 1   
    11     3    31 1   
    12     4    16 1   
    13     4    20 1   
    14     4    32 1   
    15     4    33 1   
    16     5    22 ar  
    17     5    25 ar  
    18     5    55 1   
    19     6    23 ar  
    20     6    25 ar  
    21     6    34 1   
    22     7    22 ar  
    23     7    23 ar  
    24     7    35 1   
    25     8    24 1   
    26     8    36 1   
    27     8    37 1   
    28     9    10 2   
    29     9    14 1   
    30     9    18 1   
    31    10    11 1   
    32    10    38 1   
    33    11    12 1   
    34    11    26 2   
    35    12    13 1   
    36    12    39 1   
    37    12    40 1   
    38    13    14 1   
    39    13    41 1   
    40    13    42 1   
    41    14    15 1   
    42    14    16 1   
    43    15    43 1   
    44    15    44 1   
    45    15    45 1   
    46    16    46 1   
    47    17    18 1   
    48    17    47 1   
    49    17    48 1   
    50    18    49 1   
    51    18    50 1   
    52    19    20 1   
    53    19    21 1   
    54    20    51 1   
    55    20    52 1   
    56    21    22 1   
    57    21    24 2   
    58    23    53 1   
    59    24    54 1   
@<TRIPOS>SUBSTRUCTURE
     1 U7P         1 TEMP              0 ****  ****    0 ROOT
