@<TRIPOS>MOLECULE
U7P
   55    59     1     0     0
SMALL
No Charge or Current Charge


@<TRIPOS>ATOM
      1 C10         30.0730   150.0110    34.8750 c6         1 U7P      -0.042700
      2 C13         30.0420   148.6370    35.5940 c5         1 U7P      -0.066700
      3 C15         27.5050   148.1410    35.0420 c3         1 U7P      -0.079100
      4 C17         28.2510   150.7450    36.5980 c6         1 U7P      -0.072400
      5 C20         29.1690   145.3120    38.6020 ca         1 U7P       0.341900
      6 C22         27.3410   144.7470    39.9070 ca         1 U7P       0.333900
      7 C24         27.0180   146.2570    38.0380 ca         1 U7P      -0.067000
      8 C26         30.4890   147.3300    34.8720 c5         1 U7P      -0.043200
      9 C01         31.0010   152.8280    34.5730 c2         1 U7P      -0.032400
     10 C02         31.6900   153.9900    34.6850 ce         1 U7P      -0.317200
     11 C03         31.2560   155.1320    35.5250 c          1 U7P       0.575300
     12 C05         29.8230   155.0630    36.0440 c6         1 U7P      -0.181400
     13 C06         29.4410   153.6170    36.4380 c6         1 U7P      -0.064400
     14 C07         29.6460   152.5750    35.2800 c6         1 U7P      -0.010800
     15 C08         28.5330   152.7760    34.1950 c3         1 U7P      -0.081100
     16 C09         29.6160   151.1150    35.8990 c6         1 U7P      -0.047700
     17 C11         31.4890   150.3370    34.3410 c6         1 U7P      -0.069400
     18 C12         31.5130   151.7170    33.6590 c6         1 U7P      -0.051200
     19 C14         28.6230   148.2540    36.1330 c5         1 U7P      -0.005800
     20 C16         28.2320   149.3070    37.2050 c6         1 U7P      -0.060400
     21 C18         29.0430   146.8670    36.6200 ce         1 U7P      -0.069400
     22 C19         28.3950   146.1420    37.7590 ca         1 U7P      -0.080800
     23 C23         26.4900   145.5460    39.1280 ca         1 U7P      -0.165000
     24 C25         30.0190   146.2970    35.8840 c2         1 U7P      -0.208200
     25 N21         28.6640   144.6250    39.6560 nb         1 U7P      -0.666000
     26 O04         31.9940   156.0750    35.7760 o          1 U7P      -0.528100
     27 H101        29.3870   149.9780    34.0200 hc         1 U7P       0.054700
     28 H131        30.7240   148.7770    36.4440 hc         1 U7P       0.051700
     29 H153        26.5310   147.9120    35.4850 hc         1 U7P       0.035033
     30 H151        27.3770   149.0640    34.4680 hc         1 U7P       0.035033
     31 H152        27.7180   147.3440    34.3200 hc         1 U7P       0.035033
     32 H171        28.0400   151.4510    37.4110 hc         1 U7P       0.041200
     33 H172        27.4190   150.8500    35.8920 hc         1 U7P       0.041200
     34 H221        26.9540   144.1870    40.7580 h4         1 U7P       0.019100
     35 H241        26.3640   146.8700    37.4280 ha         1 U7P       0.120000
     36 H261        30.0130   147.1950    33.8940 hc         1 U7P       0.053700
     37 H262        31.5750   147.2890    34.7230 hc         1 U7P       0.053700
     38 H021        32.6470   154.1260    34.1860 ha         1 U7P       0.195000
     39 H052        29.6790   155.7850    36.8580 hc         1 U7P       0.069700
     40 H051        29.1730   155.3620    35.2120 hc         1 U7P       0.069700
     41 H061        28.3990   153.6100    36.7850 hc         1 U7P       0.048700
     42 H062        30.0510   153.3310    37.3070 hc         1 U7P       0.048700
     43 H082        27.5290   152.7760    34.6350 hc         1 U7P       0.038033
     44 H083        28.6520   153.7310    33.6710 hc         1 U7P       0.038033
     45 H081        28.5530   151.9960    33.4270 hc         1 U7P       0.038033
     46 H091        30.3710   151.1050    36.6980 hc         1 U7P       0.048700
     47 H111        31.8090   149.5710    33.6210 hc         1 U7P       0.046200
     48 H112        32.2180   150.3210    35.1630 hc         1 U7P       0.046200
     49 H122        32.5370   151.9350    33.3260 hc         1 U7P       0.054200
     50 H121        30.9020   151.6870    32.7470 hc         1 U7P       0.054200
     51 H161        27.2380   149.0920    37.6200 hc         1 U7P       0.045700
     52 H162        28.9350   149.2570    38.0480 hc         1 U7P       0.045700
     53 H231        25.4330   145.6100    39.3720 ha         1 U7P       0.123000
     54 H4          30.4420   145.3030    36.0350 ha         1 U7P       0.190000
     55 H201        30.2400   145.1980    38.4360 h4         1 U7P       0.019100
@<TRIPOS>BOND
     1     1     2 1   
     2     1    16 1   
     3     1    17 1   
     4     1    27 1   
     5     2     8 1   
     6     2    19 1   
     7     2    28 1   
     8     3    19 1   
     9     3    29 1   
    10     3    30 1   
    11     3    31 1   
    12     4    16 1   
    13     4    20 1   
    14     4    32 1   
    15     4    33 1   
    16     5    22 ar  
    17     5    25 ar  
    18     5    55 1   
    19     6    23 ar  
    20     6    25 ar  
    21     6    34 1   
    22     7    22 ar  
    23     7    23 ar  
    24     7    35 1   
    25     8    24 1   
    26     8    36 1   
    27     8    37 1   
    28     9    10 2   
    29     9    14 1   
    30     9    18 1   
    31    10    11 1   
    32    10    38 1   
    33    11    12 1   
    34    11    26 2   
    35    12    13 1   
    36    12    39 1   
    37    12    40 1   
    38    13    14 1   
    39    13    41 1   
    40    13    42 1   
    41    14    15 1   
    42    14    16 1   
    43    15    43 1   
    44    15    44 1   
    45    15    45 1   
    46    16    46 1   
    47    17    18 1   
    48    17    47 1   
    49    17    48 1   
    50    18    49 1   
    51    18    50 1   
    52    19    20 1   
    53    19    21 1   
    54    20    51 1   
    55    20    52 1   
    56    21    22 1   
    57    21    24 2   
    58    23    53 1   
    59    24    54 1   
@<TRIPOS>SUBSTRUCTURE
     1 U7P         1 TEMP              0 ****  ****    0 ROOT
