@<TRIPOS>MOLECULE
U7Q
   31    32     1     0     0
SMALL
No Charge or Current Charge


@<TRIPOS>ATOM
      1 C10        -54.2110     0.0200    -7.3380 c3         1 U7Q       0.321900
      2 C13        -52.0160    -2.0650    -9.5330 ca         1 U7Q      -0.205000
      3 C17        -54.4030    -1.8920    -9.7320 ca         1 U7Q      -0.225000
      4 C02        -53.2050     5.4260   -11.5470 ca         1 U7Q       0.185000
      5 C03        -54.0330     5.5830   -10.4250 ca         1 U7Q      -0.155000
      6 C04        -54.2480     4.4980    -9.5550 ca         1 U7Q      -0.059000
      7 C05        -53.6330     3.2570    -9.8120 ca         1 U7Q       0.002000
      8 C06        -52.8040     3.1050   -10.9410 ca         1 U7Q      -0.059000
      9 C07        -52.5900     4.1920   -11.8090 ca         1 U7Q      -0.155000
     10 C08        -53.8480     2.1490    -8.9270 cg         1 U7Q      -0.080000
     11 C09        -54.0210     1.2010    -8.1880 c1         1 U7Q      -0.173100
     12 C12        -53.2400    -1.6610    -8.9970 ca         1 U7Q       0.371000
     13 C14        -51.9820    -2.6810   -10.7960 ca         1 U7Q       0.280300
     14 C16        -54.2990    -2.5110   -10.9800 ca         1 U7Q       0.374900
     15 C18        -50.6310    -3.1190   -11.4020 c3         1 U7Q       0.262700
     16 F19        -49.7940    -2.0670   -11.5590 f          1 U7Q      -0.108000
     17 F20        -50.7500    -3.7050   -12.6180 f          1 U7Q      -0.108000
     18 F21        -49.9940    -4.0080   -10.6040 f          1 U7Q      -0.108000
     19 N11        -53.2770    -1.0440    -7.7480 nu         1 U7Q      -0.970200
     20 N15        -53.1180    -2.9000   -11.5100 nb         1 U7Q      -0.665000
     21 H102       -54.0320     0.3050    -6.2910 h1         1 U7Q       0.068200
     22 H101       -55.2540    -0.3190    -7.4150 h1         1 U7Q       0.068200
     23 H131       -51.0940    -1.8990    -8.9840 ha         1 U7Q       0.135000
     24 H171       -55.3770    -1.6050    -9.3540 ha         1 U7Q       0.131000
     25 H031       -54.5060     6.5420   -10.2290 ha         1 U7Q       0.136000
     26 H041       -54.8900     4.6210    -8.6850 ha         1 U7Q       0.124500
     27 H061       -52.3260     2.1480   -11.1450 ha         1 U7Q       0.124500
     28 H071       -51.9510     4.0780   -12.6810 ha         1 U7Q       0.136000
     29 H161       -55.1880    -2.7060   -11.5800 h4         1 U7Q       0.023100
     30 H111       -52.3780    -1.0280    -7.2630 hn         1 U7Q       0.498000
     31 F01        -52.9990     6.4690   -12.3810 f          1 U7Q      -0.173000
@<TRIPOS>BOND
     1     1    11 1   
     2     1    19 1   
     3     1    21 1   
     4     1    22 1   
     5     2    12 ar  
     6     2    13 ar  
     7     2    23 1   
     8     3    12 ar  
     9     3    14 ar  
    10     3    24 1   
    11     4     5 ar  
    12     4     9 ar  
    13     4    31 1   
    14     5     6 ar  
    15     5    25 1   
    16     6     7 ar  
    17     6    26 1   
    18     7     8 ar  
    19     7    10 1   
    20     8     9 ar  
    21     8    27 1   
    22     9    28 1   
    23    10    11 3   
    24    12    19 1   
    25    13    15 1   
    26    13    20 ar  
    27    14    20 ar  
    28    14    29 1   
    29    15    16 1   
    30    15    17 1   
    31    15    18 1   
    32    19    30 1   
@<TRIPOS>SUBSTRUCTURE
     1 U7Q         1 TEMP              0 ****  ****    0 ROOT
