@<TRIPOS>MOLECULE
U7Q
   31    32     1     0     0
SMALL
bcc


@<TRIPOS>ATOM
      1 C10        -53.5690     0.1190    -7.6300 c3         1 U7Q       0.321900
      2 C13        -51.9770    -2.6280    -9.6120 ca         1 U7Q      -0.288300
      3 C17        -54.0230    -1.4680   -10.0410 ca         1 U7Q      -0.308300
      4 C02        -53.6170     5.9970   -11.1610 ca         1 U7Q       0.149900
      5 C03        -54.8020     5.3110   -10.9640 ca         1 U7Q      -0.173000
      6 C04        -54.7670     4.1070   -10.2810 ca         1 U7Q      -0.077000
      7 C05        -53.5600     3.5950    -9.7960 ca         1 U7Q       0.002000
      8 C06        -52.3810     4.3100   -10.0230 ca         1 U7Q      -0.077000
      9 C07        -52.4040     5.5130   -10.7090 ca         1 U7Q      -0.173000
     10 C08        -53.5420     2.3720    -9.0630 cg         1 U7Q      -0.080000
     11 C09        -53.5390     1.3480    -8.4280 c1         1 U7Q      -0.173100
     12 C12        -52.8970    -1.6370    -9.2230 ca         1 U7Q       0.232600
     13 C14        -52.2350    -3.3590   -10.7480 ca         1 U7Q       0.345600
     14 C16        -54.1600    -2.2650   -11.1620 ca         1 U7Q       0.440200
     15 C18        -51.2580    -4.4100   -11.2090 c3         1 U7Q       0.626600
     16 F19        -50.3830    -3.9090   -12.0930 f          1 U7Q      -0.229300
     17 F20        -51.8710    -5.4330   -11.8050 f          1 U7Q      -0.229300
     18 F21        -50.5440    -4.9090   -10.1940 f          1 U7Q      -0.229300
     19 N11        -52.6880    -0.9190    -8.0990 nu         1 U7Q      -0.776600
     20 N15        -53.2950    -3.2000   -11.5330 nb         1 U7Q      -0.665000
     21 H102       -53.2820     0.3500    -6.6030 h1         1 U7Q       0.068200
     22 H101       -54.5970    -0.2490    -7.5780 h1         1 U7Q       0.068200
     23 H131       -51.0920    -2.8020    -9.0120 ha         1 U7Q       0.153000
     24 H171       -54.7820    -0.7290    -9.8270 ha         1 U7Q       0.149000
     25 H031       -55.7370     5.7100   -11.3350 ha         1 U7Q       0.154000
     26 H041       -55.6860     3.5600   -10.1180 ha         1 U7Q       0.142500
     27 H061       -51.4390     3.9230    -9.6570 ha         1 U7Q       0.142500
     28 H071       -51.4910     6.0670   -10.8840 ha         1 U7Q       0.154000
     29 H161       -55.0270    -2.1340   -11.8000 h4         1 U7Q       0.023100
     30 H111       -51.8020    -1.0140    -7.6330 hn         1 U7Q       0.442800
     31 F01        -53.6460     7.1690   -11.8080 f          1 U7Q      -0.137900
@<TRIPOS>BOND
     1     1    11 1   
     2     1    19 1   
     3     1    21 1   
     4     1    22 1   
     5     2    12 ar  
     6     2    13 ar  
     7     2    23 1   
     8     3    12 ar  
     9     3    14 ar  
    10     3    24 1   
    11     4     5 ar  
    12     4     9 ar  
    13     4    31 1   
    14     5     6 ar  
    15     5    25 1   
    16     6     7 ar  
    17     6    26 1   
    18     7     8 ar  
    19     7    10 1   
    20     8     9 ar  
    21     8    27 1   
    22     9    28 1   
    23    10    11 3   
    24    12    19 1   
    25    13    15 1   
    26    13    20 ar  
    27    14    20 ar  
    28    14    29 1   
    29    15    16 1   
    30    15    17 1   
    31    15    18 1   
    32    19    30 1   
@<TRIPOS>SUBSTRUCTURE
     1 U7Q         1 TEMP              0 ****  ****    0 ROOT
