@<TRIPOS>MOLECULE
U7R
   53    56     1     0     0
SMALL
No Charge or Current Charge


@<TRIPOS>ATOM
      1 C10         31.9520    11.9550    44.4590 c3         1 U7R       0.049600
      2 C15         30.4930     7.7000    40.3860 ca         1 U7R      -0.089000
      3 C17         29.6260     5.9950    38.7760 cc         1 U7R      -0.096400
      4 C21         27.1180     5.7490    42.2120 c3         1 U7R       0.144900
      5 C22         26.0950     6.9450    39.7750 ca         1 U7R      -0.221000
      6 C24         26.4740     7.6030    37.4630 ca         1 U7R      -0.326500
      7 C02         32.2130     4.7210    38.7440 c          1 U7R       0.564600
      8 C03         31.9700     5.9340    39.5990 ca         1 U7R      -0.165600
      9 C04         33.0040     6.4710    40.3930 ca         1 U7R      -0.046000
     10 C05         32.7800     7.6110    41.1810 ca         1 U7R      -0.130000
     11 C06         31.5160     8.2390    41.1940 ca         1 U7R      -0.074500
     12 C07         31.2620     9.4490    41.9960 cc         1 U7R       0.250500
     13 C08         32.1380     9.9210    42.9230 cd         1 U7R      -0.169000
     14 C11         31.5560    11.5190    45.8820 c3         1 U7R       0.161600
     15 C16         30.7040     6.5470    39.6000 ca         1 U7R       0.035200
     16 C18         28.2580     6.5110    38.7270 ca         1 U7R      -0.086800
     17 C19         27.4070     6.4310    39.8520 ca         1 U7R       0.210100
     18 C23         25.6300     7.5310    38.5870 ca         1 U7R       0.033000
     19 C27         26.3610    10.0780    36.1380 c3         1 U7R      -0.341100
     20 C29         27.7860     7.0940    37.5360 ca         1 U7R       0.022000
     21 C30         29.8820     4.8850    37.9960 cd         1 U7R      -0.024400
     22 F12         32.1530    10.3420    46.2020 f          1 U7R      -0.268000
     23 N09         31.4850    11.0290    43.4160 na         1 U7R       0.109800
     24 N13         30.2670    11.1920    42.7970 nd         1 U7R      -0.207800
     25 N14         30.1360    10.2190    41.9300 nc         1 U7R      -0.350000
     26 N31         31.1290     4.2580    37.9640 n          1 U7R      -0.289000
     27 O01         33.3040     4.1610    38.7230 o          1 U7R      -0.558000
     28 O20         27.8930     5.8380    41.0040 os         1 U7R      -0.330100
     29 O26         26.6710     7.8370    34.8160 o          1 U7R      -0.536000
     30 O28         24.4190     8.3300    35.9280 o          1 U7R      -0.536000
     31 S25         25.8870     8.3630    35.9400 sy         1 U7R       1.091500
     32 H102        33.0440    12.0360    44.3940 h1         1 U7R       0.083700
     33 H101        31.5310    12.9470    44.2590 h1         1 U7R       0.083700
     34 H151        29.5180     8.1800    40.3730 ha         1 U7R       0.137000
     35 H213        27.7000     5.2540    43.0000 h1         1 U7R       0.049700
     36 H211        26.8400     6.7470    42.5730 h1         1 U7R       0.049700
     37 H212        26.2040     5.1640    42.0480 h1         1 U7R       0.049700
     38 H221        25.4200     6.8990    40.6240 ha         1 U7R       0.126000
     39 H041        33.9890     6.0080    40.3990 ha         1 U7R       0.137000
     40 H051        33.6040     8.0000    41.7720 ha         1 U7R       0.112000
     41 H081        33.1060     9.5830    43.2640 h4         1 U7R       0.173000
     42 H111        31.8740    12.2800    46.6060 h1         1 U7R       0.067200
     43 H112        30.4680    11.3970    45.9530 h1         1 U7R       0.067200
     44 H231        24.6150     7.9250    38.5470 ha         1 U7R       0.136000
     45 H273        25.8650    10.4680    37.0330 h1         1 U7R       0.102367
     46 H272        27.4490    10.1210    36.2490 h1         1 U7R       0.102367
     47 H271        26.0400    10.6260    35.2460 h1         1 U7R       0.102367
     48 H291        28.4490     7.1560    36.6750 ha         1 U7R       0.137000
     49 H301        29.1330     4.4130    37.3660 h4         1 U7R       0.204000
     50 H323        31.6050     2.2050    37.7340 h1         1 U7R       0.054367
     51 H321        30.4320     2.8270    36.5430 h1         1 U7R       0.054367
     52 H322        32.1560     3.2610    36.4000 h1         1 U7R       0.054367
     53 C32         31.3400     3.0670    37.1090 c3         1 U7R       0.084300
@<TRIPOS>BOND
     1     1    14 1   
     2     1    23 1   
     3     1    32 1   
     4     1    33 1   
     5     2    11 ar  
     6     2    15 ar  
     7     2    34 1   
     8     3    15 1   
     9     3    16 1   
    10     3    21 2   
    11     4    28 1   
    12     4    35 1   
    13     4    36 1   
    14     4    37 1   
    15     5    17 ar  
    16     5    18 ar  
    17     5    38 1   
    18     6    18 ar  
    19     6    20 ar  
    20     6    31 1   
    21     7     8 1   
    22     7    26 1   
    23     7    27 2   
    24     8     9 ar  
    25     8    15 ar  
    26     9    10 ar  
    27     9    39 1   
    28    10    11 ar  
    29    10    40 1   
    30    11    12 1   
    31    12    13 2   
    32    12    25 1   
    33    13    23 1   
    34    13    41 1   
    35    14    22 1   
    36    14    42 1   
    37    14    43 1   
    38    16    17 ar  
    39    16    20 ar  
    40    17    28 1   
    41    18    44 1   
    42    19    31 1   
    43    19    45 1   
    44    19    46 1   
    45    19    47 1   
    46    20    48 1   
    47    21    26 1   
    48    21    49 1   
    49    23    24 1   
    50    24    25 2   
    51    26    53 1   
    52    29    31 2   
    53    30    31 2   
    54    50    53 1   
    55    51    53 1   
    56    52    53 1   
@<TRIPOS>SUBSTRUCTURE
     1 U7R         1 TEMP              0 ****  ****    0 ROOT
