@<TRIPOS>MOLECULE
U7R
   53    56     1     0     0
SMALL
abcg2


@<TRIPOS>ATOM
      1 C10         31.8580    11.8720    44.5500 c3         1 U7R       0.049600
      2 C15         30.4930     7.6740    40.4230 ca         1 U7R      -0.089000
      3 C17         29.6190     5.9970    38.7890 cc         1 U7R      -0.096400
      4 C21         27.2030     6.1380    42.2280 c3         1 U7R       0.144900
      5 C22         26.1390     7.1430    39.8180 ca         1 U7R      -0.221000
      6 C24         26.4490     7.5660    37.4770 ca         1 U7R      -0.326500
      7 C02         32.2100     4.7750    38.7180 c          1 U7R       0.564600
      8 C03         31.9450     5.9320    39.5700 ca         1 U7R      -0.165600
      9 C04         32.9860     6.4460    40.3590 ca         1 U7R      -0.046000
     10 C05         32.7840     7.5390    41.1660 ca         1 U7R      -0.130000
     11 C06         31.5230     8.1710    41.2060 ca         1 U7R      -0.074500
     12 C07         31.3050     9.3260    42.0750 cc         1 U7R       0.250500
     13 C08         32.1730     9.9410    42.9580 cd         1 U7R      -0.169000
     14 C11         31.5630    11.3390    45.9340 c3         1 U7R       0.161600
     15 C16         30.6730     6.5460    39.6070 ca         1 U7R       0.035200
     16 C18         28.2530     6.5710    38.7430 ca         1 U7R      -0.086800
     17 C19         27.4260     6.6040    39.8890 ca         1 U7R       0.210100
     18 C23         25.6500     7.6220    38.6120 ca         1 U7R       0.033000
     19 C27         26.3170     9.8830    35.9000 c3         1 U7R      -0.341100
     20 C29         27.7440     7.0550    37.5470 ca         1 U7R       0.022000
     21 C30         29.9070     4.9330    38.0020 cd         1 U7R      -0.024400
     22 F12         32.3550    10.2050    46.1880 f          1 U7R      -0.268000
     23 N09         31.4590    10.9440    43.5030 na         1 U7R       0.109800
     24 N13         30.2120    10.9670    43.0030 nd         1 U7R      -0.207800
     25 N14         30.1160     9.9960    42.1410 nc         1 U7R      -0.350000
     26 N31         31.1440     4.3410    37.9520 n          1 U7R      -0.289000
     27 O01         33.3000     4.1970    38.6500 o          1 U7R      -0.558000
     28 O20         27.9500     6.0720    41.0090 os         1 U7R      -0.330100
     29 O26         26.5350     7.4850    34.8620 o          1 U7R      -0.536000
     30 O28         24.3860     8.1130    35.9590 o          1 U7R      -0.536000
     31 S25         25.8380     8.1730    35.9360 sy         1 U7R       1.091500
     32 H102        32.9220    12.0730    44.4360 h1         1 U7R       0.083700
     33 H101        31.3060    12.8000    44.4010 h1         1 U7R       0.083700
     34 H151        29.5310     8.1640    40.4480 ha         1 U7R       0.137000
     35 H213        27.8370     5.6840    42.9840 h1         1 U7R       0.049700
     36 H211        26.9900     7.1740    42.4950 h1         1 U7R       0.049700
     37 H212        26.2700     5.5770    42.1430 h1         1 U7R       0.049700
     38 H221        25.5070     7.1720    40.6920 ha         1 U7R       0.126000
     39 H041        33.9530     5.9640    40.3180 ha         1 U7R       0.137000
     40 H051        33.5990     7.9150    41.7700 ha         1 U7R       0.112000
     41 H081        33.1960     9.7550    43.2300 h4         1 U7R       0.173000
     42 H111        31.8110    12.0920    46.6810 h1         1 U7R       0.067200
     43 H112        30.5200    11.0360    46.0320 h1         1 U7R       0.067200
     44 H231        24.6490     8.0260    38.5570 ha         1 U7R       0.136000
     45 H273        25.8530    10.3890    36.7440 h1         1 U7R       0.102367
     46 H272        27.4020     9.9410    35.9550 h1         1 U7R       0.102367
     47 H271        25.9530    10.2890    34.9560 h1         1 U7R       0.102367
     48 H291        28.3640     7.0320    36.6620 ha         1 U7R       0.137000
     49 H301        29.1580     4.4810    37.3690 h4         1 U7R       0.204000
     50 H323        31.6290     2.3140    37.6720 h1         1 U7R       0.054367
     51 H321        30.4500     2.9930    36.5250 h1         1 U7R       0.054367
     52 H322        32.1760     3.3980    36.3850 h1         1 U7R       0.054367
     53 C32         31.3630     3.1880    37.0790 c3         1 U7R       0.084300
@<TRIPOS>BOND
     1     1    14 1   
     2     1    23 1   
     3     1    32 1   
     4     1    33 1   
     5     2    11 ar  
     6     2    15 ar  
     7     2    34 1   
     8     3    15 1   
     9     3    16 1   
    10     3    21 2   
    11     4    28 1   
    12     4    35 1   
    13     4    36 1   
    14     4    37 1   
    15     5    17 ar  
    16     5    18 ar  
    17     5    38 1   
    18     6    18 ar  
    19     6    20 ar  
    20     6    31 1   
    21     7     8 1   
    22     7    26 1   
    23     7    27 2   
    24     8     9 ar  
    25     8    15 ar  
    26     9    10 ar  
    27     9    39 1   
    28    10    11 ar  
    29    10    40 1   
    30    11    12 1   
    31    12    13 2   
    32    12    25 1   
    33    13    23 1   
    34    13    41 1   
    35    14    22 1   
    36    14    42 1   
    37    14    43 1   
    38    16    17 ar  
    39    16    20 ar  
    40    17    28 1   
    41    18    44 1   
    42    19    31 1   
    43    19    45 1   
    44    19    46 1   
    45    19    47 1   
    46    20    48 1   
    47    21    26 1   
    48    21    49 1   
    49    23    24 1   
    50    24    25 2   
    51    26    53 1   
    52    29    31 2   
    53    30    31 2   
    54    50    53 1   
    55    51    53 1   
    56    52    53 1   
@<TRIPOS>SUBSTRUCTURE
     1 U7R         1 TEMP              0 ****  ****    0 ROOT
