@<TRIPOS>MOLECULE
U7S
   48    50     1     0     0
SMALL
bcc


@<TRIPOS>ATOM
      1 C4         -16.8880   -20.9760    15.6590 cc         1 U7S      -0.038900
      2 C14        -15.2840   -29.9490    12.8880 c          1 U7S       0.608900
      3 C5         -17.6950   -22.0580    15.8910 cd         1 U7S      -0.032900
      4 C6         -16.0260   -20.1700    16.5050 ce         1 U7S       0.181300
      5 C11        -16.0180   -26.1080    11.0270 c3         1 U7S       0.233800
      6 C7         -15.9240   -20.0810    17.8240 c2         1 U7S      -0.225000
      7 C8         -18.5390   -21.9800    12.2090 c3         1 U7S       0.231100
      8 C9         -17.2610   -24.0080    11.7540 c3         1 U7S       0.159800
      9 C10        -16.2990   -24.6400    10.7580 c3         1 U7S      -0.099400
     10 C12        -15.1000   -27.4980    12.8320 cc         1 U7S       0.421000
     11 C13        -15.5270   -28.6890    12.2730 cd         1 U7S      -0.438200
     12 N1         -17.5850   -22.6530    11.3490 n7         1 U7S      -0.806200
     13 N2         -15.3460   -26.2890    12.2970 nu         1 U7S      -0.797000
     14 C3         -18.1010   -21.7910    13.6380 cc         1 U7S      -0.120400
     15 N3         -14.4060   -27.5110    14.0010 na         1 U7S      -0.634400
     16 C1         -19.3250   -23.7110    14.7750 c3         1 U7S      -0.035800
     17 C2         -18.3980   -22.5400    14.7450 cd         1 U7S      -0.061300
     18 S1         -16.9860   -20.5350    13.9950 ss         1 U7S      -0.018800
     19 BR1        -17.8750   -22.9180    17.5430 br         1 U7S      -0.059100
     20 F1         -15.2310   -19.3810    15.7440 f          1 U7S      -0.185500
     21 C15        -14.5340   -29.8990    14.1590 ca         1 U7S      -0.198600
     22 C16        -14.2290   -31.0660    14.8660 ca         1 U7S      -0.042000
     23 C17        -13.5280   -31.0170    16.0520 ca         1 U7S      -0.175000
     24 C18        -13.1140   -29.7810    16.5560 ca         1 U7S      -0.074000
     25 C19        -13.3990   -28.6150    15.8790 ca         1 U7S      -0.199000
     26 C20        -14.1130   -28.6690    14.6770 ca         1 U7S       0.186600
     27 H1         -16.9600   -26.6620    11.0410 h1         1 U7S       0.054700
     28 H2         -15.4180   -26.5210    10.2090 h1         1 U7S       0.054700
     29 H3         -15.2010   -19.4090    18.2660 ha         1 U7S       0.143000
     30 H4         -16.5520   -20.6500    18.4870 ha         1 U7S       0.143000
     31 H5         -18.7650   -21.0060    11.7680 h1         1 U7S       0.068200
     32 H6         -19.4750   -22.5420    12.1970 h1         1 U7S       0.068200
     33 H7         -18.1890   -24.5890    11.7730 h1         1 U7S       0.039200
     34 H8         -16.8410   -24.0630    12.7690 h1         1 U7S       0.039200
     35 H9         -15.3570   -24.0810    10.7420 hc         1 U7S       0.056700
     36 H10        -16.7220   -24.5620     9.7540 hc         1 U7S       0.056700
     37 H11        -16.0550   -28.6740    11.3300 ha         1 U7S       0.154000
     38 H13        -16.7360   -22.1030    11.2860 hn         1 U7S       0.355800
     39 H15        -14.8240   -25.5000    12.6480 hn         1 U7S       0.425800
     40 H16        -18.7980   -24.6280    15.0430 hc         1 U7S       0.053033
     41 H17        -20.1220   -23.5670    15.5050 hc         1 U7S       0.053033
     42 H18        -19.7920   -23.8740    13.8070 hc         1 U7S       0.053033
     43 H19        -14.5560   -32.0160    14.4640 ha         1 U7S       0.157000
     44 H20        -13.3000   -31.9270    16.5900 ha         1 U7S       0.137000
     45 H21        -12.5630   -29.7330    17.4860 ha         1 U7S       0.131000
     46 H22        -13.0780   -27.6570    16.2720 ha         1 U7S       0.129000
     47 H12        -14.1230   -26.6360    14.4190 hn         1 U7S       0.440800
     48 O1         -15.6550   -31.0300    12.4140 o          1 U7S      -0.592100
@<TRIPOS>BOND
     1     1     3 2   
     2     1     4 1   
     3     1    18 1   
     4     2    11 1   
     5     2    21 1   
     6     2    48 2   
     7     3    17 1   
     8     3    19 1   
     9     4     6 2   
    10     4    20 1   
    11     5     9 1   
    12     5    13 1   
    13     5    27 1   
    14     5    28 1   
    15     6    29 1   
    16     6    30 1   
    17     7    12 1   
    18     7    14 1   
    19     7    31 1   
    20     7    32 1   
    21     8     9 1   
    22     8    12 1   
    23     8    33 1   
    24     8    34 1   
    25     9    35 1   
    26     9    36 1   
    27    10    11 2   
    28    10    13 1   
    29    10    15 1   
    30    11    37 1   
    31    12    38 1   
    32    13    39 1   
    33    14    17 2   
    34    14    18 1   
    35    15    26 1   
    36    15    47 1   
    37    16    17 1   
    38    16    40 1   
    39    16    41 1   
    40    16    42 1   
    41    21    22 ar  
    42    21    26 ar  
    43    22    23 ar  
    44    22    43 1   
    45    23    24 ar  
    46    23    44 1   
    47    24    25 ar  
    48    24    45 1   
    49    25    26 ar  
    50    25    46 1   
@<TRIPOS>SUBSTRUCTURE
     1 U7S         1 TEMP              0 ****  ****    0 ROOT
