@<TRIPOS>MOLECULE
U7S
   48    50     1     0     0
SMALL
No Charge or Current Charge


@<TRIPOS>ATOM
      1 C4         -16.4510   -22.6160    15.9090 cc         1 U7S      -0.183800
      2 C14        -16.4020   -28.2590    13.6300 c          1 U7S       0.608900
      3 C5         -17.0170   -23.8740    15.9050 cd         1 U7S      -0.032900
      4 C6         -15.5330   -21.9940    16.8610 ce         1 U7S       0.181300
      5 C11        -15.4860   -25.7870     9.9720 c3         1 U7S       0.233800
      6 C7         -15.5410   -22.1500    18.1980 c2         1 U7S      -0.325000
      7 C8         -18.7130   -22.9150    12.6360 c3         1 U7S       0.231100
      8 C9         -17.1810   -24.4140    11.3520 c3         1 U7S       0.159800
      9 C10        -16.1880   -24.4270    10.1730 c3         1 U7S      -0.099400
     10 C12        -14.9590   -26.7770    12.2320 cc         1 U7S       0.421000
     11 C13        -16.0540   -27.5680    12.4030 cd         1 U7S      -0.488200
     12 N1         -17.8100   -23.0840    11.4810 n7         1 U7S      -0.861400
     13 N2         -14.6110   -26.1060    11.1150 nu         1 U7S      -0.852200
     14 C3         -17.9370   -23.0520    13.9200 cc         1 U7S      -0.265300
     15 N3         -14.1240   -26.6420    13.3060 na         1 U7S      -0.828000
     16 C1         -18.6060   -25.4330    14.5780 c3         1 U7S      -0.035800
     17 C2         -17.8690   -24.1270    14.7800 cd         1 U7S      -0.061300
     18 S1         -16.9330   -21.7210    14.4750 ss         1 U7S       0.271000
     19 Br1        -16.6860   -25.1870    17.2330 br         1 U7S      -0.059100
     20 F1         -14.6480   -21.1460    16.2880 f          1 U7S      -0.185500
     21 C15        -15.4910   -28.0430    14.7630 ca         1 U7S      -0.198600
     22 C16        -15.7140   -28.6240    16.0290 ca         1 U7S      -0.024000
     23 C17        -14.8130   -28.3770    17.0770 ca         1 U7S      -0.157000
     24 C18        -13.6980   -27.5510    16.8620 ca         1 U7S      -0.056000
     25 C19        -13.4880   -26.9790    15.5950 ca         1 U7S      -0.181000
     26 C20        -14.3850   -27.2260    14.5420 ca         1 U7S       0.325000
     27 H1         -16.2390   -26.5700     9.8150 h1         1 U7S       0.054700
     28 H2         -14.8820   -25.7360     9.0560 h1         1 U7S       0.054700
     29 H3         -14.8270   -21.6250    18.8290 ha         1 U7S       0.193000
     30 H4         -16.2670   -22.7830    18.7020 ha         1 U7S       0.193000
     31 H5         -19.1800   -21.9200    12.6110 h1         1 U7S       0.068200
     32 H6         -19.5310   -23.6490    12.6080 h1         1 U7S       0.068200
     33 H7         -17.9450   -25.1880    11.1920 h1         1 U7S       0.039200
     34 H8         -16.6370   -24.6660    12.2710 h1         1 U7S       0.039200
     35 H9         -15.4300   -23.6480    10.3190 hc         1 U7S       0.056700
     36 H10        -16.7290   -24.1780     9.2520 hc         1 U7S       0.056700
     37 H11        -16.7540   -27.7380    11.6010 ha         1 U7S       0.204000
     38 H13        -17.0600   -22.3920    11.5790 hn         1 U7S       0.411000
     39 H15        -13.7170   -25.6240    11.1560 hn         1 U7S       0.481000
     40 H16        -18.0230   -26.2880    14.9350 hc         1 U7S       0.053033
     41 H17        -19.5590   -25.4290    15.1190 hc         1 U7S       0.053033
     42 H18        -18.8230   -25.6230    13.5210 hc         1 U7S       0.053033
     43 H19        -16.5810   -29.2610    16.2010 ha         1 U7S       0.139000
     44 H20        -14.9810   -28.8210    18.0560 ha         1 U7S       0.119000
     45 H21        -12.9990   -27.3550    17.6720 ha         1 U7S       0.113000
     46 H22        -12.6220   -26.3430    15.4350 ha         1 U7S       0.111000
     47 H12        -13.2920   -26.0760    13.2150 hn         1 U7S       0.496000
     48 O1         -17.3960   -28.9680    13.7060 o          1 U7S      -0.592100
@<TRIPOS>BOND
     1     1     3 2   
     2     1     4 1   
     3     1    18 1   
     4     2    11 1   
     5     2    21 1   
     6     2    48 2   
     7     3    17 1   
     8     3    19 1   
     9     4     6 2   
    10     4    20 1   
    11     5     9 1   
    12     5    13 1   
    13     5    27 1   
    14     5    28 1   
    15     6    29 1   
    16     6    30 1   
    17     7    12 1   
    18     7    14 1   
    19     7    31 1   
    20     7    32 1   
    21     8     9 1   
    22     8    12 1   
    23     8    33 1   
    24     8    34 1   
    25     9    35 1   
    26     9    36 1   
    27    10    11 2   
    28    10    13 1   
    29    10    15 1   
    30    11    37 1   
    31    12    38 1   
    32    13    39 1   
    33    14    17 2   
    34    14    18 1   
    35    15    26 1   
    36    15    47 1   
    37    16    17 1   
    38    16    40 1   
    39    16    41 1   
    40    16    42 1   
    41    21    22 ar  
    42    21    26 ar  
    43    22    23 ar  
    44    22    43 1   
    45    23    24 ar  
    46    23    44 1   
    47    24    25 ar  
    48    24    45 1   
    49    25    26 ar  
    50    25    46 1   
@<TRIPOS>SUBSTRUCTURE
     1 U7S         1 TEMP              0 ****  ****    0 ROOT
