@<TRIPOS>MOLECULE
U7T
   38    41     1     0     0
SMALL
No Charge or Current Charge


@<TRIPOS>ATOM
      1 P           20.4950    25.2020    27.8810 p3         1 U7T       0.203300
      2 OP1         20.8500    24.9000    29.4800 oh         1 U7T      -0.534100
      3 OP2         20.9910    23.8200    27.0950 oh         1 U7T      -0.534100
      4 O5          18.8330    25.1320    27.8210 os         1 U7T      -0.315100
      5 C4          18.6180    18.9950    24.5940 cc         1 U7T      -0.271100
      6 N3          17.8940    20.0410    25.0990 na         1 U7T      -0.093400
      7 C2          18.4440    21.2350    25.6060 cc         1 U7T       0.514400
      8 N1          15.1820    22.7350    26.4960 n          1 U7T      -0.358300
      9 C6          15.7410    20.8000    25.5880 cc         1 U7T      -0.027400
     10 C5          17.6200    18.0920    24.2630 cd         1 U7T      -0.024400
     11 C9          15.8100    23.9370    28.5240 c5         1 U7T      -0.158400
     12 C10         18.0830    26.2310    27.2760 c3         1 U7T       0.183600
     13 C8          16.5600    25.9490    27.4030 c5         1 U7T       0.176300
     14 O4          16.1530    24.9390    26.4390 os         1 U7T      -0.454000
     15 C1          15.2240    24.0720    27.1030 c5         1 U7T       0.359700
     16 C3          16.0770    25.4350    28.8160 c5         1 U7T       0.143300
     17 O3          14.8660    26.0760    29.2420 oh         1 U7T      -0.725000
     18 C11         16.2570    21.9740    26.0740 cd         1 U7T       0.381900
     19 N2          17.6380    22.2100    26.0950 nd         1 U7T      -0.628000
     20 C12         16.5740    19.7890    25.0810 cc         1 U7T      -0.038000
     21 N4          16.3530    18.5950    24.5700 nd         1 U7T      -0.288600
     22 N5          14.3750    20.8650    25.7200 ns         1 U7T      -0.464600
     23 C7          13.9880    22.0440    26.2800 c          1 U7T       0.593000
     24 H1          21.4000    25.6420    29.8120 ho         1 U7T       0.460000
     25 H3          21.6010    24.0900    26.3750 ho         1 U7T       0.460000
     26 H5          19.7010    18.9630    24.5100 h4         1 U7T       0.233000
     27 H4          19.5210    21.3420    25.5890 h5         1 U7T       0.059100
     28 H6          17.7420    17.1040    23.8210 h4         1 U7T       0.229000
     29 H2          15.1140    23.4700    29.2290 hc         1 U7T       0.082700
     30 H2'         16.7390    23.3570    28.5350 hc         1 U7T       0.082700
     31 H5'         18.3370    26.3930    26.2210 h1         1 U7T       0.035700
     32 H10         18.3130    27.1520    27.8270 h1         1 U7T       0.035700
     33 H11         16.0380    26.8820    27.1510 h1         1 U7T       0.078700
     34 H8          14.2120    24.5000    27.1070 h2         1 U7T       0.090700
     35 H9          16.8610    25.5610    29.5780 h1         1 U7T       0.069700
     36 H7          14.7260    25.8360    30.1890 ho         1 U7T       0.509000
     37 H12         13.7050    20.1490    25.4550 hn         1 U7T       0.484000
     38 O1          12.8520    22.4040    26.5340 o          1 U7T      -0.551000
@<TRIPOS>BOND
     1     1     2 1   
     2     1     3 1   
     3     1     4 1   
     4     2    24 1   
     5     3    25 1   
     6     4    12 1   
     7     5     6 1   
     8     5    10 2   
     9     5    26 1   
    10     6     7 1   
    11     6    20 1   
    12     7    19 2   
    13     7    27 1   
    14     8    15 1   
    15     8    18 1   
    16     8    23 1   
    17     9    18 2   
    18     9    20 1   
    19     9    22 1   
    20    10    21 1   
    21    10    28 1   
    22    11    15 1   
    23    11    16 1   
    24    11    29 1   
    25    11    30 1   
    26    12    13 1   
    27    12    31 1   
    28    12    32 1   
    29    13    14 1   
    30    13    16 1   
    31    13    33 1   
    32    14    15 1   
    33    15    34 1   
    34    16    17 1   
    35    16    35 1   
    36    17    36 1   
    37    18    19 1   
    38    20    21 2   
    39    22    23 1   
    40    22    37 1   
    41    23    38 2   
@<TRIPOS>SUBSTRUCTURE
     1 U7T         1 TEMP              0 ****  ****    0 ROOT
