@<TRIPOS>MOLECULE
U7T
   38    41     1     0     0
SMALL
bcc


@<TRIPOS>ATOM
      1 P           20.3670    25.0670    27.3250 p3         1 U7T       0.203300
      2 OP1         20.8390    25.8540    28.6870 oh         1 U7T      -0.495100
      3 OP2         20.6140    23.5110    27.7680 oh         1 U7T      -0.495100
      4 O5          18.7560    25.0240    27.6350 os         1 U7T      -0.291900
      5 C4          18.6300    19.0290    24.6910 cc         1 U7T      -0.221100
      6 N3          17.9380    20.0720    25.2680 na         1 U7T      -0.144100
      7 C2          18.3710    21.1140    26.0290 cc         1 U7T       0.514400
      8 N1          15.2290    22.7120    26.5450 n          1 U7T      -0.425300
      9 C6          15.7390    20.8670    25.4270 cc         1 U7T      -0.092700
     10 C5          17.6840    18.2880    24.0480 cd         1 U7T       0.025600
     11 C9          15.9250    23.8410    28.6840 c5         1 U7T      -0.158400
     12 C10         17.9740    26.1540    27.2990 c3         1 U7T       0.160400
     13 C8          16.5120    25.8590    27.5450 c5         1 U7T       0.153100
     14 O4          16.0300    24.8940    26.6170 os         1 U7T      -0.407600
     15 C1          15.2780    23.9240    27.3100 c5         1 U7T       0.336500
     16 C3          16.2010    25.3150    28.9530 c5         1 U7T       0.120100
     17 O3          15.0580    25.9970    29.4230 oh         1 U7T      -0.602800
     18 C11         16.2720    21.8800    26.1820 cd         1 U7T       0.447200
     19 N2          17.5680    22.0160    26.4900 nd         1 U7T      -0.628000
     20 C12         16.6010    19.8840    24.9260 cc         1 U7T       0.012700
     21 N4          16.4330    18.8130    24.1920 nd         1 U7T      -0.288600
     22 N5          14.3920    21.0820    25.3270 ns         1 U7T      -0.418100
     23 C7          14.0460    22.2260    25.9990 c          1 U7T       0.802500
     24 H1          21.5590    26.4690    28.5030 ho         1 U7T       0.421000
     25 H3          21.2540    23.0850    27.1860 ho         1 U7T       0.421000
     26 H5          19.6960    18.9220    24.7940 h4         1 U7T       0.183000
     27 H4          19.4310    21.1610    26.2350 h5         1 U7T       0.059100
     28 H6          17.8500    17.3860    23.4800 h4         1 U7T       0.179000
     29 H2          15.2720    23.3840    29.4270 hc         1 U7T       0.082700
     30 H2'         16.8570    23.2770    28.6480 hc         1 U7T       0.082700
     31 H5'         18.1200    26.4390    26.2500 h1         1 U7T       0.035700
     32 H10         18.2450    27.0210    27.9120 h1         1 U7T       0.035700
     33 H11         15.9750    26.8050    27.4040 h1         1 U7T       0.078700
     34 H8          14.2370    24.2430    27.4140 h2         1 U7T       0.090700
     35 H9          17.0470    25.4530    29.6360 h1         1 U7T       0.069700
     36 H7          14.8240    25.6330    30.2830 ho         1 U7T       0.410000
     37 H12         13.7290    20.5030    24.8350 hn         1 U7T       0.370500
     38 O1          12.9380    22.7120    26.1020 o          1 U7T      -0.626500
@<TRIPOS>BOND
     1     1     2 1   
     2     1     3 1   
     3     1     4 1   
     4     2    24 1   
     5     3    25 1   
     6     4    12 1   
     7     5     6 1   
     8     5    10 2   
     9     5    26 1   
    10     6     7 1   
    11     6    20 1   
    12     7    19 2   
    13     7    27 1   
    14     8    15 1   
    15     8    18 1   
    16     8    23 1   
    17     9    18 2   
    18     9    20 1   
    19     9    22 1   
    20    10    21 1   
    21    10    28 1   
    22    11    15 1   
    23    11    16 1   
    24    11    29 1   
    25    11    30 1   
    26    12    13 1   
    27    12    31 1   
    28    12    32 1   
    29    13    14 1   
    30    13    16 1   
    31    13    33 1   
    32    14    15 1   
    33    15    34 1   
    34    16    17 1   
    35    16    35 1   
    36    17    36 1   
    37    18    19 1   
    38    20    21 2   
    39    22    23 1   
    40    22    37 1   
    41    23    38 2   
@<TRIPOS>SUBSTRUCTURE
     1 U7T         1 TEMP              0 ****  ****    0 ROOT
