@<TRIPOS>MOLECULE
U7V
   42    45     1     0     0
SMALL
abcg2


@<TRIPOS>ATOM
      1 C11        224.6860   208.0820   191.4270 ca         1 U7V      -0.062000
      2 C13        226.0050   206.9530   189.6030 cp         1 U7V      -0.102000
      3 N02        224.1060   208.1180   196.9270 na         1 U7V       0.247600
      4 N03        223.9760   208.3620   195.6520 nc         1 U7V      -0.526800
      5 C04        224.8690   207.5480   195.1200 cd         1 U7V       0.443000
      6 N05        225.5090   206.8420   196.0660 nd         1 U7V      -0.335000
      7 N06        225.0100   207.2200   197.1960 nc         1 U7V      -0.185800
      8 C07        225.1220   207.4420   193.6830 ca         1 U7V       0.320000
      9 N08        226.0580   206.5780   193.3050 nb         1 U7V      -0.630000
     10 C09        226.3180   206.4580   192.0160 ca         1 U7V       0.348900
     11 C10        225.6650   207.1810   191.0150 cp         1 U7V      -0.070000
     12 C12        224.4080   208.2160   192.7750 ca         1 U7V      -0.131000
     13 C14        226.2430   207.9890   188.7120 ca         1 U7V       0.212000
     14 C15        226.5780   207.7920   187.3900 ca         1 U7V      -0.215000
     15 C16        226.6930   206.4920   186.8970 ca         1 U7V       0.033000
     16 C17        226.4590   205.4200   187.7640 ca         1 U7V      -0.146000
     17 C18        226.1300   205.6640   189.0840 ca         1 U7V      -0.048000
     18 N19        227.0000   206.3170   185.5490 n          1 U7V      -0.259400
     19 C20        226.9590   207.4060   184.5920 c5         1 U7V       0.062000
     20 C21        227.1790   206.6570   183.2800 c5         1 U7V       0.154300
     21 O22        227.7580   205.4110   183.6880 os         1 U7V      -0.388100
     22 C23        227.5660   205.2030   184.9920 c          1 U7V       0.700100
     23 O24        227.8780   204.1730   185.5300 o          1 U7V      -0.506000
     24 C25        225.8840   206.4190   182.5360 c3         1 U7V       0.148600
     25 O26        226.1560   205.6650   181.3850 oh         1 U7V      -0.640000
     26 F27        226.1720   209.2530   189.1510 f          1 U7V      -0.174000
     27 H111       224.1220   208.6600   190.7080 ha         1 U7V       0.127000
     28 H011       223.4960   209.8560   197.8890 h1         1 U7V       0.072367
     29 H013       222.2700   208.5710   197.7910 h1         1 U7V       0.072367
     30 H012       223.6400   208.4100   198.9110 h1         1 U7V       0.072367
     31 H091       227.1010   205.7540   191.7500 h4         1 U7V       0.028100
     32 H121       223.6460   208.9050   193.1110 ha         1 U7V       0.140000
     33 H151       226.7600   208.6580   186.7690 ha         1 U7V       0.132000
     34 H171       226.5140   204.4000   187.4220 ha         1 U7V       0.152000
     35 H181       225.9360   204.8180   189.7320 ha         1 U7V       0.127000
     36 H202       227.7480   208.1370   184.7820 h1         1 U7V       0.068700
     37 H201       225.9980   207.9220   184.6190 h1         1 U7V       0.068700
     38 H211       227.8990   207.1640   182.6380 h1         1 U7V       0.100700
     39 H252       225.4640   207.4040   182.2970 h1         1 U7V       0.030700
     40 H251       225.1680   205.9180   183.2030 h1         1 U7V       0.030700
     41 H261       225.3270   205.5090   180.9240 ho         1 U7V       0.451000
     42 C01        223.3240   208.7840   197.9440 c3         1 U7V       0.075900
@<TRIPOS>BOND
     1     1    11 ar  
     2     1    12 ar  
     3     1    27 1   
     4     2    11 1   
     5     2    13 ar  
     6     2    17 ar  
     7     3     4 1   
     8     3     7 1   
     9     3    42 1   
    10     4     5 2   
    11     5     6 1   
    12     5     8 1   
    13     6     7 2   
    14     8     9 ar  
    15     8    12 ar  
    16     9    10 ar  
    17    10    11 ar  
    18    10    31 1   
    19    12    32 1   
    20    13    14 ar  
    21    13    26 1   
    22    14    15 ar  
    23    14    33 1   
    24    15    16 ar  
    25    15    18 1   
    26    16    17 ar  
    27    16    34 1   
    28    17    35 1   
    29    18    19 1   
    30    18    22 1   
    31    19    20 1   
    32    19    36 1   
    33    19    37 1   
    34    20    21 1   
    35    20    24 1   
    36    20    38 1   
    37    21    22 1   
    38    22    23 2   
    39    24    25 1   
    40    24    39 1   
    41    24    40 1   
    42    25    41 1   
    43    28    42 1   
    44    29    42 1   
    45    30    42 1   
@<TRIPOS>SUBSTRUCTURE
     1 U7V         1 TEMP              0 ****  ****    0 ROOT
