@<TRIPOS>MOLECULE
U7V
   42    45     1     0     0
SMALL
No Charge or Current Charge


@<TRIPOS>ATOM
      1 C11        224.8320   208.2240   191.4980 ca         1 U7V      -0.062000
      2 C13        225.9920   207.0010   189.5890 cp         1 U7V      -0.102000
      3 N02        224.0530   208.0790   197.0870 na         1 U7V       0.247600
      4 N03        224.0140   208.4280   195.7770 nc         1 U7V      -0.526800
      5 C04        224.7680   207.4780   195.2400 cd         1 U7V       0.443000
      6 N05        225.2430   206.5870   196.1890 nd         1 U7V      -0.335000
      7 N06        224.7910   206.9680   197.3480 nc         1 U7V      -0.185800
      8 C07        225.0690   207.3790   193.7750 ca         1 U7V       0.320000
      9 N08        225.8580   206.3540   193.3400 nb         1 U7V      -0.630000
     10 C09        226.1320   206.2600   192.0170 ca         1 U7V       0.348900
     11 C10        225.6540   207.1690   191.0390 cp         1 U7V      -0.070000
     12 C12        224.5430   208.3270   192.8690 ca         1 U7V      -0.131000
     13 C14        226.3600   208.0950   188.7640 ca         1 U7V       0.212000
     14 C15        226.6730   207.9110   187.4090 ca         1 U7V      -0.215000
     15 C16        226.5890   206.6390   186.8110 ca         1 U7V       0.033000
     16 C17        226.2970   205.5360   187.6400 ca         1 U7V      -0.146000
     17 C18        225.9830   205.7160   188.9980 ca         1 U7V      -0.048000
     18 N19        227.0590   206.4660   185.4590 n          1 U7V      -0.259400
     19 C20        226.8780   207.4980   184.4300 c5         1 U7V       0.062000
     20 C21        227.2010   206.6730   183.1520 c5         1 U7V       0.154300
     21 O22        227.9840   205.5480   183.6280 os         1 U7V      -0.388100
     22 C23        227.7580   205.3590   184.9590 c          1 U7V       0.700100
     23 O24        228.1480   204.3890   185.5910 o          1 U7V      -0.506000
     24 C25        225.9250   206.1470   182.4340 c3         1 U7V       0.148600
     25 O26        226.2560   205.5110   181.1880 oh         1 U7V      -0.640000
     26 F27        226.4630   209.3410   189.2790 f          1 U7V      -0.174000
     27 H111       224.4140   208.9460   190.8010 ha         1 U7V       0.127000
     28 H011       223.0710   209.8200   197.7580 h1         1 U7V       0.072367
     29 H013       222.4520   208.2840   198.4330 h1         1 U7V       0.072367
     30 H012       224.0120   208.9490   199.0030 h1         1 U7V       0.072367
     31 H091       226.7710   205.4270   191.7250 h4         1 U7V       0.028100
     32 H121       223.9110   209.1360   193.2250 ha         1 U7V       0.140000
     33 H151       226.9850   208.7740   186.8290 ha         1 U7V       0.132000
     34 H171       226.2730   204.5290   187.2330 ha         1 U7V       0.152000
     35 H181       225.7220   204.8450   189.5960 ha         1 U7V       0.127000
     36 H202       227.5920   208.3200   184.5650 h1         1 U7V       0.068700
     37 H201       225.8600   207.9080   184.4270 h1         1 U7V       0.068700
     38 H211       227.7910   207.2590   182.4340 h1         1 U7V       0.100700
     39 H252       225.2520   206.9950   182.2510 h1         1 U7V       0.030700
     40 H251       225.4010   205.4460   183.0980 h1         1 U7V       0.030700
     41 H261       225.4150   205.1780   180.8010 ho         1 U7V       0.451000
     42 C01        223.3530   208.8310   198.1360 c3         1 U7V       0.075900
@<TRIPOS>BOND
     1     1    11 ar  
     2     1    12 ar  
     3     1    27 1   
     4     2    11 1   
     5     2    13 ar  
     6     2    17 ar  
     7     3     4 1   
     8     3     7 1   
     9     3    42 1   
    10     4     5 2   
    11     5     6 1   
    12     5     8 1   
    13     6     7 2   
    14     8     9 ar  
    15     8    12 ar  
    16     9    10 ar  
    17    10    11 ar  
    18    10    31 1   
    19    12    32 1   
    20    13    14 ar  
    21    13    26 1   
    22    14    15 ar  
    23    14    33 1   
    24    15    16 ar  
    25    15    18 1   
    26    16    17 ar  
    27    16    34 1   
    28    17    35 1   
    29    18    19 1   
    30    18    22 1   
    31    19    20 1   
    32    19    36 1   
    33    19    37 1   
    34    20    21 1   
    35    20    24 1   
    36    20    38 1   
    37    21    22 1   
    38    22    23 2   
    39    24    25 1   
    40    24    39 1   
    41    24    40 1   
    42    25    41 1   
    43    28    42 1   
    44    29    42 1   
    45    30    42 1   
@<TRIPOS>SUBSTRUCTURE
     1 U7V         1 TEMP              0 ****  ****    0 ROOT
