@<TRIPOS>MOLECULE
U7W
   38    41     1     0     0
SMALL
No Charge or Current Charge


@<TRIPOS>ATOM
      1 C4          14.0030     2.0470    23.1140 cc         1 U7W      -0.118000
      2 C14          4.7590     2.6310    20.5710 ca         1 U7W      -0.076000
      3 C5          15.1370     1.2780    23.1920 cd         1 U7W      -0.234000
      4 C6          13.0770    -0.0270    22.6220 cd         1 U7W      -0.208300
      5 C11          6.1040     1.7090    18.3060 ca         1 U7W       0.015400
      6 C7          11.9970    -1.0150    22.2520 c6         1 U7W      -0.018100
      7 C8          10.6080    -0.4090    22.5680 c6         1 U7W       0.106000
      8 C10          8.6730     0.3120    20.4070 c3         1 U7W       0.004600
      9 C12          4.8930     2.3940    18.1290 ca         1 U7W      -0.027000
     10 C13          4.2180     2.8570    19.2820 ca         1 U7W      -0.139000
     11 N1          10.4910     0.9880    22.0450 n          1 U7W      -0.408800
     12 N2           7.7810     0.8190    19.3520 na         1 U7W       0.074600
     13 C3          12.8340     1.3090    22.7950 cc         1 U7W      -0.118300
     14 N3           7.9710     0.6100    17.9940 nc         1 U7W      -0.154400
     15 C1          10.9620     2.4890    24.0090 c3         1 U7W      -0.101100
     16 C2          11.4660     1.9510    22.6460 c6         1 U7W       0.175000
     17 S1          14.7860    -0.4300    22.8610 ss         1 U7W       0.206000
     18 O1           9.6210     2.5270    20.5840 o          1 U7W      -0.573100
     19 N4           6.9450     1.1640    17.3450 nd         1 U7W      -0.215400
     20 C15          5.9810     1.9400    20.7170 ca         1 U7W      -0.111000
     21 C16          6.6140     1.4970    19.5460 ca         1 U7W      -0.063200
     22 H1          13.9880     3.1220    23.2770 ha         1 U7W       0.137000
     23 H3          16.1480     1.5930    23.4180 h4         1 U7W       0.153000
     24 H4          12.0580    -1.2530    21.1820 hc         1 U7W       0.062200
     25 H5          12.1230    -1.9620    22.7950 hc         1 U7W       0.062200
     26 H6           9.8270    -1.0710    22.1750 h1         1 U7W       0.049700
     27 H7          10.4740    -0.3850    23.6580 h1         1 U7W       0.049700
     28 H8           8.0610    -0.0920    21.2210 h1         1 U7W       0.084200
     29 H9           9.2850    -0.4990    19.9970 h1         1 U7W       0.084200
     30 H10          4.4870     2.5620    17.1350 ha         1 U7W       0.133000
     31 H11          3.2760     3.3920    19.1760 ha         1 U7W       0.117000
     32 H12         11.6420     3.2500    24.4100 hc         1 U7W       0.044367
     33 H13          9.9730     2.9510    23.9050 hc         1 U7W       0.044367
     34 H14         10.8830     1.6880    24.7530 hc         1 U7W       0.044367
     35 H15         11.5750     2.8200    21.9810 h1         1 U7W       0.095700
     36 H16          6.4100     1.7620    21.7000 ha         1 U7W       0.120000
     37 C9           9.6200     1.3720    20.9960 c          1 U7W       0.587100
     38 H2           4.2330     2.9930    21.4520 ha         1 U7W       0.114000
@<TRIPOS>BOND
     1     1     3 2   
     2     1    13 1   
     3     1    22 1   
     4     2    10 ar  
     5     2    20 ar  
     6     2    38 1   
     7     3    17 1   
     8     3    23 1   
     9     4     6 1   
    10     4    13 2   
    11     4    17 1   
    12     5     9 ar  
    13     5    19 1   
    14     5    21 ar  
    15     6     7 1   
    16     6    24 1   
    17     6    25 1   
    18     7    11 1   
    19     7    26 1   
    20     7    27 1   
    21     8    12 1   
    22     8    28 1   
    23     8    29 1   
    24     8    37 1   
    25     9    10 ar  
    26     9    30 1   
    27    10    31 1   
    28    11    16 1   
    29    11    37 1   
    30    12    14 1   
    31    12    21 1   
    32    13    16 1   
    33    14    19 2   
    34    15    16 1   
    35    15    32 1   
    36    15    33 1   
    37    15    34 1   
    38    16    35 1   
    39    18    37 2   
    40    20    21 ar  
    41    20    36 1   
@<TRIPOS>SUBSTRUCTURE
     1 U7W         1 TEMP              0 ****  ****    0 ROOT
