@<TRIPOS>MOLECULE
U7W
   38    41     1     0     0
SMALL
bcc


@<TRIPOS>ATOM
      1 C4          13.9500     2.0670    23.0720 cc         1 U7W      -0.136000
      2 C14          4.7510     2.5050    20.6040 ca         1 U7W      -0.094000
      3 C5          15.0520     1.2800    23.1760 cd         1 U7W      -0.107100
      4 C6          13.0250    -0.0010    22.5740 cd         1 U7W      -0.063400
      5 C11          6.2790     1.8260    18.4190 ca         1 U7W       0.015400
      6 C7          11.9840    -1.0090    22.2240 c6         1 U7W      -0.018100
      7 C8          10.6230    -0.4010    22.5390 c6         1 U7W       0.106000
      8 C10          8.6820     0.2110    20.5050 c3         1 U7W      -0.024700
      9 C12          5.1120     2.5650    18.1990 ca         1 U7W      -0.045000
     10 C13          4.3620     2.8950    19.3040 ca         1 U7W      -0.157000
     11 N1          10.5120     0.9340    21.9710 n          1 U7W      -0.475800
     12 N2           7.7950     0.7520    19.5180 na         1 U7W       0.103900
     13 C3          12.7800     1.3310    22.7210 cc         1 U7W      -0.118300
     14 N3           8.1100     0.7290    18.2260 nc         1 U7W      -0.154400
     15 C1          10.8630     2.5500    23.8030 c3         1 U7W      -0.101100
     16 C2          11.4210     1.9400    22.5200 c6         1 U7W       0.175000
     17 S1          14.6820    -0.3670    22.8550 ss         1 U7W      -0.083800
     18 O1           9.5210     2.4400    20.6080 o          1 U7W      -0.573100
     19 N4           7.2230     1.3510    17.5520 nd         1 U7W      -0.215400
     20 C15          5.8960     1.7770    20.8370 ca         1 U7W      -0.129000
     21 C16          6.6510     1.4480    19.7100 ca         1 U7W      -0.063200
     22 H1          13.9670     3.1370    23.2320 ha         1 U7W       0.155000
     23 H3          16.0600     1.5760    23.4210 h4         1 U7W       0.171000
     24 H4          12.0400    -1.2830    21.1670 hc         1 U7W       0.062200
     25 H5          12.1060    -1.9290    22.8000 hc         1 U7W       0.062200
     26 H6           9.8320    -1.0480    22.1730 h1         1 U7W       0.049700
     27 H7          10.4930    -0.3360    23.6220 h1         1 U7W       0.049700
     28 H8           8.0810    -0.2180    21.3070 h1         1 U7W       0.084200
     29 H9           9.2470    -0.6030    20.0490 h1         1 U7W       0.084200
     30 H10          4.8150     2.8620    17.2020 ha         1 U7W       0.151000
     31 H11          3.4520     3.4680    19.1820 ha         1 U7W       0.135000
     32 H12         11.5450     3.3040    24.1950 hc         1 U7W       0.044367
     33 H13          9.9040     3.0320    23.6130 hc         1 U7W       0.044367
     34 H14         10.7240     1.7930    24.5760 hc         1 U7W       0.044367
     35 H15         11.5130     2.7300    21.7740 h1         1 U7W       0.095700
     36 H16          6.1900     1.4840    21.8370 ha         1 U7W       0.138000
     37 C9           9.6160     1.3030    21.0380 c          1 U7W       0.654100
     38 H2           4.1270     2.7890    21.4420 ha         1 U7W       0.132000
@<TRIPOS>BOND
     1     1     3 2   
     2     1    13 1   
     3     1    22 1   
     4     2    10 ar  
     5     2    20 ar  
     6     2    38 1   
     7     3    17 1   
     8     3    23 1   
     9     4     6 1   
    10     4    13 2   
    11     4    17 1   
    12     5     9 ar  
    13     5    19 1   
    14     5    21 ar  
    15     6     7 1   
    16     6    24 1   
    17     6    25 1   
    18     7    11 1   
    19     7    26 1   
    20     7    27 1   
    21     8    12 1   
    22     8    28 1   
    23     8    29 1   
    24     8    37 1   
    25     9    10 ar  
    26     9    30 1   
    27    10    31 1   
    28    11    16 1   
    29    11    37 1   
    30    12    14 1   
    31    12    21 1   
    32    13    16 1   
    33    14    19 2   
    34    15    16 1   
    35    15    32 1   
    36    15    33 1   
    37    15    34 1   
    38    16    35 1   
    39    18    37 2   
    40    20    21 ar  
    41    20    36 1   
@<TRIPOS>SUBSTRUCTURE
     1 U7W         1 TEMP              0 ****  ****    0 ROOT
