@<TRIPOS>MOLECULE
U7X
   52    57     1     0     0
SMALL
No Charge or Current Charge


@<TRIPOS>ATOM
      1 C1          -1.3740    41.1800    51.7980 cc         1 U7X      -0.195100
      2 C2          -1.3360    40.7580    50.4420 ca         1 U7X      -0.150000
      3 C3          -2.1130    41.1420    49.3420 ca         1 U7X      -0.040000
      4 C7          -0.3270    39.8330    50.3630 ca         1 U7X      -0.059000
      5 C8          -2.6180    40.9010    46.9060 cc         1 U7X      -0.115400
      6 C9          -3.9920    40.7630    47.0500 cd         1 U7X      -0.183800
      7 C10         -4.8000    41.0860    45.9190 cd         1 U7X       0.239800
      8 C11         -5.2990    41.7150    43.8190 cc         1 U7X      -0.154300
      9 C12         -5.3670    42.1280    42.4010 cx         1 U7X      -0.074400
     10 C13         -6.3520    41.4420    41.4790 cx         1 U7X      -0.116900
     11 C14         -4.8740    41.1900    41.3230 cx         1 U7X      -0.116900
     12 C15         -4.2560    41.5290    44.7020 cd         1 U7X      -0.017400
     13 C16         -1.9750    41.3780    45.6400 c          1 U7X       0.571200
     14 C19         -1.3820    41.8580    41.1520 ca         1 U7X      -0.101500
     15 C20         -1.5540    43.2280    40.8440 ca         1 U7X       0.083100
     16 C21         -0.5440    43.0700    38.5600 c3         1 U7X       0.384300
     17 C22         -2.1560    44.0740    41.7910 ca         1 U7X      -0.101500
     18 F1           0.6210    42.4980    38.9440 f          1 U7X      -0.137000
     19 F           -1.3520    42.0780    38.1160 f          1 U7X      -0.137000
     20 O1          -1.1560    43.7990    39.6470 os         1 U7X      -0.388100
     21 C18         -1.8220    41.3530    42.3890 ca         1 U7X      -0.089000
     22 C23         -2.5930    43.5680    43.0270 ca         1 U7X      -0.089000
     23 C17         -2.4480    42.2000    43.3210 ca         1 U7X       0.055600
     24 N4          -2.8670    41.6850    44.5870 n          1 U7X      -0.192200
     25 N3          -6.4100    41.3900    44.6130 na         1 U7X       0.032800
     26 N2          -6.1080    40.9910    45.9090 nc         1 U7X      -0.480800
     27 O           -0.7630    41.5130    45.5130 o          1 U7X      -0.526000
     28 C4          -1.8380    40.5400    48.0930 ca         1 U7X      -0.060800
     29 C5          -0.7960    39.5830    47.9980 ca         1 U7X      -0.068000
     30 C6          -0.0360    39.2250    49.1330 ca         1 U7X      -0.086000
     31 N1           0.3130    39.6080    51.5830 nc         1 U7X      -0.290400
     32 N           -0.3730    40.4680    52.4470 na         1 U7X       0.149500
     33 C           -0.0060    40.5440    53.8660 c3         1 U7X       0.061900
     34 H1          -1.9960    41.8900    52.3310 h4         1 U7X       0.225000
     35 H2          -2.8990    41.8860    49.4490 ha         1 U7X       0.114000
     36 H3          -4.4480    40.4110    47.9690 ha         1 U7X       0.205000
     37 H4          -5.2330    43.1980    42.2500 hc         1 U7X       0.095700
     38 H5          -6.8440    42.0480    40.7220 hc         1 U7X       0.078200
     39 H6          -6.9570    40.6280    41.8720 hc         1 U7X       0.078200
     40 H7          -4.4910    40.2200    41.6300 hc         1 U7X       0.078200
     41 H8          -4.3710    41.6280    40.4650 hc         1 U7X       0.078200
     42 H9          -0.9150    41.1710    40.4530 ha         1 U7X       0.133000
     43 H10         -0.3360    43.7450    37.7230 h3         1 U7X       0.106700
     44 H11         -2.2830    45.1300    41.5650 ha         1 U7X       0.133000
     45 H12         -1.6860    40.3000    42.6220 ha         1 U7X       0.131000
     46 H13         -3.0540    44.2330    43.7540 ha         1 U7X       0.131000
     47 H14         -7.3790    41.4210    44.3000 hn         1 U7X       0.377000
     48 H15         -0.5780    39.1120    47.0420 ha         1 U7X       0.119000
     49 H16          0.7610    38.4890    49.0540 ha         1 U7X       0.127000
     50 H17          1.0380    40.8650    53.9570 h1         1 U7X       0.061033
     51 H18         -0.6530    41.2660    54.3790 h1         1 U7X       0.061033
     52 H19         -0.1260    39.5570    54.3290 h1         1 U7X       0.061033
@<TRIPOS>BOND
     1     1     2 2   
     2     1    32 1   
     3     1    34 1   
     4     2     3 ar  
     5     2     4 ar  
     6     3    28 ar  
     7     3    35 1   
     8     4    30 ar  
     9     4    31 2   
    10     5     6 2   
    11     5    13 1   
    12     5    28 1   
    13     6     7 1   
    14     6    36 1   
    15     7    12 1   
    16     7    26 2   
    17     8     9 1   
    18     8    12 2   
    19     8    25 1   
    20     9    10 1   
    21     9    11 1   
    22     9    37 1   
    23    10    11 1   
    24    10    38 1   
    25    10    39 1   
    26    11    40 1   
    27    11    41 1   
    28    12    24 1   
    29    13    24 1   
    30    13    27 2   
    31    14    15 ar  
    32    14    21 ar  
    33    14    42 1   
    34    15    17 ar  
    35    15    20 1   
    36    16    18 1   
    37    16    19 1   
    38    16    20 1   
    39    16    43 1   
    40    17    22 ar  
    41    17    44 1   
    42    21    23 ar  
    43    21    45 1   
    44    22    23 ar  
    45    22    46 1   
    46    23    24 1   
    47    25    26 1   
    48    25    47 1   
    49    28    29 ar  
    50    29    30 ar  
    51    29    48 1   
    52    30    49 1   
    53    31    32 1   
    54    32    33 1   
    55    33    50 1   
    56    33    51 1   
    57    33    52 1   
@<TRIPOS>SUBSTRUCTURE
     1 U7X         1 TEMP              0 ****  ****    0 ROOT
