@<TRIPOS>MOLECULE
U7X
   52    57     1     0     0
SMALL
abcg2


@<TRIPOS>ATOM
      1 C1          -1.4930    41.1670    51.8270 cc         1 U7X      -0.195100
      2 C2          -1.4590    40.8380    50.4740 ca         1 U7X      -0.150000
      3 C3          -2.2420    41.1540    49.3460 ca         1 U7X      -0.040000
      4 C7          -0.3230    39.9920    50.3580 ca         1 U7X      -0.059000
      5 C8          -2.7230    40.8940    46.9420 cc         1 U7X      -0.115400
      6 C9          -4.0600    40.6860    46.9710 cd         1 U7X      -0.183800
      7 C10         -4.8270    40.9730    45.8100 cd         1 U7X       0.239800
      8 C11         -5.2000    41.5890    43.7080 cc         1 U7X      -0.154300
      9 C12         -5.2380    42.0800    42.3190 cx         1 U7X      -0.074400
     10 C13         -6.1200    41.4090    41.3030 cx         1 U7X      -0.116900
     11 C14         -4.6350    41.2800    41.2050 cx         1 U7X      -0.116900
     12 C15         -4.1950    41.4400    44.6470 cd         1 U7X      -0.017400
     13 C16         -2.0470    41.4220    45.7390 c          1 U7X       0.571200
     14 C19         -0.9500    41.6560    41.4420 ca         1 U7X      -0.101500
     15 C20         -1.1420    42.9700    41.0420 ca         1 U7X       0.083100
     16 C21         -1.3230    43.2400    38.7270 c3         1 U7X       0.384300
     17 C22         -1.8430    43.8640    41.8350 ca         1 U7X      -0.101500
     18 F1          -1.5880    41.9310    38.5060 f          1 U7X      -0.137000
     19 F           -2.5310    43.8400    38.8310 f          1 U7X      -0.137000
     20 O1          -0.5910    43.4120    39.8540 os         1 U7X      -0.388100
     21 C18         -1.4940    41.2270    42.6410 ca         1 U7X      -0.089000
     22 C23         -2.3710    43.4320    43.0420 ca         1 U7X      -0.089000
     23 C17         -2.2150    42.1110    43.4290 ca         1 U7X       0.055600
     24 N4          -2.8320    41.6450    44.6250 n          1 U7X      -0.192200
     25 N3          -6.3200    41.2160    44.3760 na         1 U7X       0.032800
     26 N2          -6.1370    40.8370    45.6230 nc         1 U7X      -0.480800
     27 O           -0.8510    41.6670    45.7090 o          1 U7X      -0.526000
     28 C4          -1.8870    40.6280    48.1290 ca         1 U7X      -0.060800
     29 C5          -0.7410    39.7790    48.0220 ca         1 U7X      -0.068000
     30 C6           0.0300    39.4530    49.1000 ca         1 U7X      -0.086000
     31 N1           0.2770    39.8220    51.5380 nc         1 U7X      -0.290400
     32 N           -0.4530    40.5390    52.3850 na         1 U7X       0.149500
     33 C           -0.0750    40.5780    53.7790 c3         1 U7X       0.061900
     34 H1          -2.1650    41.7810    52.4030 h4         1 U7X       0.225000
     35 H2          -3.1000    41.8090    49.4350 ha         1 U7X       0.114000
     36 H3          -4.5420    40.2920    47.8580 ha         1 U7X       0.205000
     37 H4          -5.1460    43.1560    42.2210 hc         1 U7X       0.095700
     38 H5          -6.6350    42.0470    40.5970 hc         1 U7X       0.078200
     39 H6          -6.6830    40.5350    41.6070 hc         1 U7X       0.078200
     40 H7          -4.1940    40.3240    41.4570 hc         1 U7X       0.078200
     41 H8          -4.1130    41.8260    40.4300 hc         1 U7X       0.078200
     42 H9          -0.3800    40.9720    40.8290 ha         1 U7X       0.133000
     43 H10         -0.7740    43.6540    37.8830 h3         1 U7X       0.106700
     44 H11         -1.9670    44.8930    41.5230 ha         1 U7X       0.133000
     45 H12         -1.3730    40.1980    42.9530 ha         1 U7X       0.131000
     46 H13         -2.9250    44.1200    43.6680 ha         1 U7X       0.131000
     47 H14         -7.2520    41.2100    43.9870 hn         1 U7X       0.377000
     48 H15         -0.4930    39.3610    47.0560 ha         1 U7X       0.119000
     49 H16          0.8850    38.7970    48.9960 ha         1 U7X       0.127000
     50 H17          0.9240    40.9960    53.8810 h1         1 U7X       0.061033
     51 H18         -0.7810    41.1990    54.3220 h1         1 U7X       0.061033
     52 H19         -0.0870    39.5730    54.1940 h1         1 U7X       0.061033
@<TRIPOS>BOND
     1     1     2 2   
     2     1    32 1   
     3     1    34 1   
     4     2     3 ar  
     5     2     4 ar  
     6     3    28 ar  
     7     3    35 1   
     8     4    30 ar  
     9     4    31 2   
    10     5     6 2   
    11     5    13 1   
    12     5    28 1   
    13     6     7 1   
    14     6    36 1   
    15     7    12 1   
    16     7    26 2   
    17     8     9 1   
    18     8    12 2   
    19     8    25 1   
    20     9    10 1   
    21     9    11 1   
    22     9    37 1   
    23    10    11 1   
    24    10    38 1   
    25    10    39 1   
    26    11    40 1   
    27    11    41 1   
    28    12    24 1   
    29    13    24 1   
    30    13    27 2   
    31    14    15 ar  
    32    14    21 ar  
    33    14    42 1   
    34    15    17 ar  
    35    15    20 1   
    36    16    18 1   
    37    16    19 1   
    38    16    20 1   
    39    16    43 1   
    40    17    22 ar  
    41    17    44 1   
    42    21    23 ar  
    43    21    45 1   
    44    22    23 ar  
    45    22    46 1   
    46    23    24 1   
    47    25    26 1   
    48    25    47 1   
    49    28    29 ar  
    50    29    30 ar  
    51    29    48 1   
    52    30    49 1   
    53    31    32 1   
    54    32    33 1   
    55    33    50 1   
    56    33    51 1   
    57    33    52 1   
@<TRIPOS>SUBSTRUCTURE
     1 U7X         1 TEMP              0 ****  ****    0 ROOT
