@<TRIPOS>MOLECULE
U7Y
   42    45     1     0     0
SMALL
No Charge or Current Charge


@<TRIPOS>ATOM
      1 C1         191.7040   208.4970   223.0930 cc         1 U7Y       0.337500
      2 N1         190.9150   208.1910   222.0010 na         1 U7Y      -0.048700
      3 O1         191.4230   203.0400   232.2880 o          1 U7Y      -0.507000
      4 C2         191.5340   208.0360   224.4970 ca         1 U7Y       0.304000
      5 N2         191.3980   208.8060   220.8930 nc         1 U7Y      -0.214800
      6 C3         192.4550   208.4600   225.4830 ca         1 U7Y      -0.106000
      7 N3         192.4470   209.4640   221.3020 nd         1 U7Y      -0.042000
      8 C4         192.3090   208.0350   226.8140 ca         1 U7Y      -0.061000
      9 N4         192.6620   209.2950   222.6460 nd         1 U7Y      -0.389000
     10 C5         191.2350   207.1840   227.1580 cp         1 U7Y      -0.057000
     11 C6         190.3650   206.8020   226.1070 ca         1 U7Y       0.349900
     12 C7         191.1630   207.5280   229.6910 ca         1 U7Y       0.216000
     13 C8         191.0290   206.6880   228.5570 cp         1 U7Y      -0.112000
     14 C9         190.6960   205.3320   228.7880 ca         1 U7Y      -0.045000
     15 C10        190.5000   204.8420   230.0900 ca         1 U7Y      -0.150000
     16 C11        190.5740   205.6990   231.2080 ca         1 U7Y       0.041000
     17 C12        190.9630   207.0360   230.9900 ca         1 U7Y      -0.218000
     18 C13        190.9150   203.9140   232.9750 c          1 U7Y       0.703100
     19 C14        190.0810   206.0180   233.6850 c5         1 U7Y       0.060000
     20 C15        189.8990   204.9260   234.7760 c5         1 U7Y       0.153300
     21 C16        190.3540   205.3550   236.1960 c3         1 U7Y       0.161600
     22 C17        189.7120   207.3430   221.9210 c3         1 U7Y       0.078900
     23 N5         190.5000   207.2100   224.8220 nb         1 U7Y      -0.679000
     24 N6         190.5260   205.1930   232.5560 n          1 U7Y      -0.254400
     25 O2         190.6770   203.7940   234.3110 os         1 U7Y      -0.389100
     26 O3         189.9740   204.3780   237.1810 oh         1 U7Y      -0.640000
     27 H3         193.2810   209.1140   225.2180 ha         1 U7Y       0.155000
     28 H4         193.0300   208.3510   227.5640 ha         1 U7Y       0.134000
     29 H6         189.5180   206.1470   226.3080 h4         1 U7Y       0.026100
     30 H9         190.6070   204.6450   227.9490 ha         1 U7Y       0.125000
     31 H10        190.2540   203.7910   230.2150 ha         1 U7Y       0.156000
     32 H12        191.1060   207.7130   231.8260 ha         1 U7Y       0.133000
     33 H14B       190.8490   206.7510   233.9660 h1         1 U7Y       0.067700
     34 H14A       189.1440   206.5480   233.4690 h1         1 U7Y       0.067700
     35 H15        188.8440   204.6220   234.8160 h1         1 U7Y       0.089700
     36 H16A       191.4430   205.4990   236.1940 h1         1 U7Y       0.032200
     37 H16B       189.8920   206.3230   236.4340 h1         1 U7Y       0.032200
     38 H17A       189.3340   207.3190   220.8910 h1         1 U7Y       0.070367
     39 H17C       189.9590   206.3210   222.2330 h1         1 U7Y       0.070367
     40 H17B       188.9320   207.7460   222.5770 h1         1 U7Y       0.070367
     41 H1         190.3260   204.6880   238.0450 ho         1 U7Y       0.452000
     42 F1         191.4740   208.8360   229.5470 f          1 U7Y      -0.173000
@<TRIPOS>BOND
     1     1     2 1   
     2     1     4 1   
     3     1     9 2   
     4     2     5 1   
     5     2    22 1   
     6     3    18 2   
     7     4     6 ar  
     8     4    23 ar  
     9     5     7 2   
    10     6     8 ar  
    11     6    27 1   
    12     7     9 1   
    13     8    10 ar  
    14     8    28 1   
    15    10    11 ar  
    16    10    13 1   
    17    11    23 ar  
    18    11    29 1   
    19    12    13 ar  
    20    12    17 ar  
    21    12    42 1   
    22    13    14 ar  
    23    14    15 ar  
    24    14    30 1   
    25    15    16 ar  
    26    15    31 1   
    27    16    17 ar  
    28    16    24 1   
    29    17    32 1   
    30    18    24 1   
    31    18    25 1   
    32    19    20 1   
    33    19    24 1   
    34    19    33 1   
    35    19    34 1   
    36    20    21 1   
    37    20    25 1   
    38    20    35 1   
    39    21    26 1   
    40    21    36 1   
    41    21    37 1   
    42    22    38 1   
    43    22    39 1   
    44    22    40 1   
    45    26    41 1   
@<TRIPOS>SUBSTRUCTURE
     1 U7Y         1 TEMP              0 ****  ****    0 ROOT
