@<TRIPOS>MOLECULE
U7Y
   42    45     1     0     0
SMALL
abcg2


@<TRIPOS>ATOM
      1 C1         191.6530   208.5100   223.2440 cc         1 U7Y       0.337500
      2 N1         190.9160   208.1200   222.1950 na         1 U7Y      -0.048700
      3 O1         190.7620   202.8690   232.2380 o          1 U7Y      -0.507000
      4 C2         191.5290   208.0730   224.6320 ca         1 U7Y       0.304000
      5 N2         191.3630   208.7590   221.1260 nc         1 U7Y      -0.214800
      6 C3         192.4010   208.5670   225.5960 ca         1 U7Y      -0.106000
      7 N3         192.3270   209.5030   221.5030 nd         1 U7Y      -0.042000
      8 C4         192.2570   208.1300   226.8990 ca         1 U7Y      -0.061000
      9 N4         192.5390   209.3780   222.8050 nd         1 U7Y      -0.389000
     10 C5         191.2540   207.2150   227.2110 cp         1 U7Y      -0.057000
     11 C6         190.4350   206.7920   226.1620 ca         1 U7Y       0.349900
     12 C7         191.0020   207.4730   229.6950 ca         1 U7Y       0.216000
     13 C8         191.0500   206.6740   228.5630 cp         1 U7Y      -0.112000
     14 C9         190.8590   205.3080   228.7790 ca         1 U7Y      -0.045000
     15 C10        190.6480   204.7730   230.0350 ca         1 U7Y      -0.150000
     16 C11        190.6200   205.6110   231.1550 ca         1 U7Y       0.041000
     17 C12        190.7970   206.9830   230.9660 ca         1 U7Y      -0.218000
     18 C13        190.4940   203.8520   232.8790 c          1 U7Y       0.703100
     19 C14        190.2220   206.0480   233.5720 c5         1 U7Y       0.060000
     20 C15        189.8400   205.0790   234.6860 c5         1 U7Y       0.153300
     21 C16        190.5350   205.3920   235.9850 c3         1 U7Y       0.161600
     22 C17        189.8010   207.1990   222.0800 c3         1 U7Y       0.078900
     23 N5         190.5670   207.2030   224.9140 nb         1 U7Y      -0.679000
     24 N6         190.3950   205.1480   232.4490 n          1 U7Y      -0.254400
     25 O2         190.2440   203.7970   234.1870 os         1 U7Y      -0.389100
     26 O3         190.0940   204.4940   236.9680 oh         1 U7Y      -0.640000
     27 H3         193.1810   209.2680   225.3330 ha         1 U7Y       0.155000
     28 H4         192.9430   208.4820   227.6570 ha         1 U7Y       0.134000
     29 H6         189.6270   206.0940   226.3530 h4         1 U7Y       0.026100
     30 H9         190.8910   204.6330   227.9340 ha         1 U7Y       0.125000
     31 H10        190.5090   203.7090   230.1280 ha         1 U7Y       0.156000
     32 H12        190.7730   207.6860   231.7870 ha         1 U7Y       0.133000
     33 H14B       191.1530   206.5820   233.7930 h1         1 U7Y       0.067700
     34 H14A       189.4380   206.7810   233.3870 h1         1 U7Y       0.067700
     35 H15        188.7560   205.0560   234.8300 h1         1 U7Y       0.089700
     36 H16A       191.6200   205.3420   235.8280 h1         1 U7Y       0.032200
     37 H16B       190.2930   206.4340   236.2360 h1         1 U7Y       0.032200
     38 H17A       189.5270   207.1560   221.0310 h1         1 U7Y       0.070367
     39 H17C       190.0910   206.2120   222.4280 h1         1 U7Y       0.070367
     40 H17B       188.9600   207.5530   222.6670 h1         1 U7Y       0.070367
     41 H1         190.4950   204.7440   237.8050 ho         1 U7Y       0.452000
     42 F1         191.1410   208.8000   229.5600 f          1 U7Y      -0.173000
@<TRIPOS>BOND
     1     1     2 1   
     2     1     4 1   
     3     1     9 2   
     4     2     5 1   
     5     2    22 1   
     6     3    18 2   
     7     4     6 ar  
     8     4    23 ar  
     9     5     7 2   
    10     6     8 ar  
    11     6    27 1   
    12     7     9 1   
    13     8    10 ar  
    14     8    28 1   
    15    10    11 ar  
    16    10    13 1   
    17    11    23 ar  
    18    11    29 1   
    19    12    13 ar  
    20    12    17 ar  
    21    12    42 1   
    22    13    14 ar  
    23    14    15 ar  
    24    14    30 1   
    25    15    16 ar  
    26    15    31 1   
    27    16    17 ar  
    28    16    24 1   
    29    17    32 1   
    30    18    24 1   
    31    18    25 1   
    32    19    20 1   
    33    19    24 1   
    34    19    33 1   
    35    19    34 1   
    36    20    21 1   
    37    20    25 1   
    38    20    35 1   
    39    21    26 1   
    40    21    36 1   
    41    21    37 1   
    42    22    38 1   
    43    22    39 1   
    44    22    40 1   
    45    26    41 1   
@<TRIPOS>SUBSTRUCTURE
     1 U7Y         1 TEMP              0 ****  ****    0 ROOT
