@<TRIPOS>MOLECULE
U7Z
   45    47     1     0     0
SMALL
bcc


@<TRIPOS>ATOM
      1 CL          22.5800    21.5050     1.6450 cl         1 U7Z      -0.102400
      2 CAU         22.8740    22.3590     0.1650 ca         1 U7Z       0.050400
      3 CAI         23.2000    21.6450    -0.9770 ca         1 U7Z      -0.123000
      4 CAG         23.4240    22.3320    -2.1610 ca         1 U7Z      -0.108000
      5 CAH         23.3190    23.7150    -2.1980 ca         1 U7Z      -0.128000
      6 CAN         22.9890    24.4160    -1.0480 ca         1 U7Z      -0.091000
      7 CAX         22.7590    23.7420     0.1460 ca         1 U7Z      -0.138600
      8 CAT         22.5010    24.5110     1.4100 c          1 U7Z       0.691700
      9 OAC         23.4450    24.8400     2.1100 o          1 U7Z      -0.577100
     10 NAZ         21.2200    24.8130     1.6850 n          1 U7Z      -0.472800
     11 CAR         20.8640    25.5050     2.9100 c6         1 U7Z       0.072500
     12 CAP         19.9630    24.6260     3.7680 c6         1 U7Z       0.070500
     13 CAQ         20.0680    24.3760     0.9150 c6         1 U7Z       0.072500
     14 CAO         19.1600    23.5090     1.7790 c6         1 U7Z       0.070500
     15 NAY         18.8000    24.2070     3.0020 n          1 U7Z      -0.466800
     16 CAS         17.5560    24.7080     3.1590 c          1 U7Z       0.675700
     17 OAB         16.6770    24.6180     2.3160 o          1 U7Z      -0.583100
     18 CAV         17.2490    25.3670     4.4700 ca         1 U7Z      -0.090600
     19 CAJ         17.3930    24.6740     5.6700 ca         1 U7Z      -0.119000
     20 CAL         17.0560    25.2770     6.8670 ca         1 U7Z      -0.032500
     21 CAW         16.5790    26.5820     6.8540 ca         1 U7Z      -0.258500
     22 SBA         16.2500    27.3810     8.4020 sy         1 U7Z       1.268200
     23 OAD         17.3460    27.1000     9.3160 o          1 U7Z      -0.612800
     24 OAE         15.9160    28.7700     8.1250 o          1 U7Z      -0.612800
     25 NAA         14.9630    26.5010     8.9480 n8         1 U7Z      -0.895700
     26 CAM         16.4130    27.2790     5.6680 ca         1 U7Z      -0.032500
     27 CAK         16.7370    26.6580     4.4710 ca         1 U7Z      -0.119000
     28 H1          23.2780    20.5670    -0.9420 ha         1 U7Z       0.151000
     29 H2          23.6810    21.7790    -3.0550 ha         1 U7Z       0.140000
     30 H3          23.4940    24.2500    -3.1220 ha         1 U7Z       0.141000
     31 H4          22.9010    25.4940    -1.0770 ha         1 U7Z       0.144000
     32 H5          21.7630    25.7670     3.4610 h1         1 U7Z       0.067950
     33 H6          20.3390    26.4310     2.6570 h1         1 U7Z       0.067950
     34 H7          19.6710    25.1790     4.6550 h1         1 U7Z       0.071450
     35 H8          20.5130    23.7380     4.0930 h1         1 U7Z       0.071450
     36 H9          20.3800    23.8170     0.0360 h1         1 U7Z       0.067950
     37 H10         19.5180    25.2560     0.5700 h1         1 U7Z       0.067950
     38 H11         18.2650    23.2370     1.2260 h1         1 U7Z       0.071450
     39 H12         19.6850    22.5900     2.0520 h1         1 U7Z       0.071450
     40 H13         17.7770    23.6610     5.6730 ha         1 U7Z       0.148000
     41 H14         17.1690    24.7330     7.7950 ha         1 U7Z       0.159000
     42 H15         14.8470    26.5910     9.9530 hn         1 U7Z       0.421300
     43 H16         14.0980    26.7290     8.4680 hn         1 U7Z       0.421300
     44 H17         16.0380    28.2930     5.6660 ha         1 U7Z       0.159000
     45 H18         16.6100    27.1950     3.5400 ha         1 U7Z       0.148000
@<TRIPOS>BOND
     1     1     2 1   
     2     2     3 ar  
     3     2     7 ar  
     4     3     4 ar  
     5     3    28 1   
     6     4     5 ar  
     7     4    29 1   
     8     5     6 ar  
     9     5    30 1   
    10     6     7 ar  
    11     6    31 1   
    12     7     8 1   
    13     8     9 2   
    14     8    10 1   
    15    10    11 1   
    16    10    13 1   
    17    11    12 1   
    18    11    32 1   
    19    11    33 1   
    20    12    15 1   
    21    12    34 1   
    22    12    35 1   
    23    13    14 1   
    24    13    36 1   
    25    13    37 1   
    26    14    15 1   
    27    14    38 1   
    28    14    39 1   
    29    15    16 1   
    30    16    17 2   
    31    16    18 1   
    32    18    19 ar  
    33    18    27 ar  
    34    19    20 ar  
    35    19    40 1   
    36    20    21 ar  
    37    20    41 1   
    38    21    22 1   
    39    21    26 ar  
    40    22    23 2   
    41    22    24 2   
    42    22    25 1   
    43    25    42 1   
    44    25    43 1   
    45    26    27 ar  
    46    26    44 1   
    47    27    45 1   
@<TRIPOS>SUBSTRUCTURE
     1 U7Z         1 TEMP              0 ****  ****    0 ROOT
