@<TRIPOS>MOLECULE
U7Z
   45    47     1     0     0
SMALL
No Charge or Current Charge


@<TRIPOS>ATOM
      1 Cl          23.7250    21.0170     1.4170 cl         1 U7Z      -0.194000
      2 CAU         23.4550    22.0420     0.0060 ca         1 U7Z       0.142000
      3 CAI         23.7530    21.5080    -1.2600 ca         1 U7Z      -0.105000
      4 CAG         23.5180    22.2600    -2.4230 ca         1 U7Z      -0.090000
      5 CAH         22.9800    23.5510    -2.3200 ca         1 U7Z      -0.110000
      6 CAN         22.6780    24.0900    -1.0590 ca         1 U7Z      -0.073000
      7 CAX         22.9050    23.3400     0.1190 ca         1 U7Z      -0.138600
      8 CAT         22.6000    23.9490     1.4660 c          1 U7Z       0.624700
      9 OAC         23.4250    23.9300     2.3720 o          1 U7Z      -0.577100
     10 NAZ         21.3900    24.6720     1.6060 n          1 U7Z      -0.405800
     11 CAR         21.1020    25.4870     2.8170 c6         1 U7Z       0.072500
     12 CAP         20.0680    24.7990     3.7440 c6         1 U7Z       0.070500
     13 CAQ         20.1520    24.3150     0.8570 c6         1 U7Z       0.072500
     14 CAO         19.1210    23.6210     1.7800 c6         1 U7Z       0.070500
     15 NAY         18.8280    24.4230     3.0020 n          1 U7Z      -0.399800
     16 CAS         17.6270    25.1630     3.1260 c          1 U7Z       0.608700
     17 OAB         16.8780    25.3000     2.1660 o          1 U7Z      -0.583100
     18 CAV         17.2310    25.6910     4.4920 ca         1 U7Z      -0.090600
     19 CAJ         17.5980    25.0250     5.6850 ca         1 U7Z      -0.101000
     20 CAL         17.1980    25.5220     6.9380 ca         1 U7Z      -0.014500
     21 CAW         16.4120    26.6890     7.0180 ca         1 U7Z      -0.258500
     22 SBA         15.8990    27.3250     8.6190 sy         1 U7Z       1.126600
     23 OAD         16.7610    26.8180     9.6850 o          1 U7Z      -0.542000
     24 OAE         15.5200    28.7330     8.5260 o          1 U7Z      -0.542000
     25 NAA         14.4800    26.5650     8.8820 n8         1 U7Z      -1.006100
     26 CAM         16.0180    27.3440     5.8350 ca         1 U7Z      -0.014500
     27 CAK         16.4200    26.8430     4.5850 ca         1 U7Z      -0.101000
     28 H1          24.1640    20.5050    -1.3390 ha         1 U7Z       0.133000
     29 H2          23.7520    21.8410    -3.4000 ha         1 U7Z       0.122000
     30 H3          22.8020    24.1390    -3.2190 ha         1 U7Z       0.123000
     31 H4          22.2780    25.1010    -0.9960 ha         1 U7Z       0.126000
     32 H5          22.0220    25.6920     3.3820 h1         1 U7Z       0.067950
     33 H6          20.7020    26.4600     2.4980 h1         1 U7Z       0.067950
     34 H7          19.8470    25.4860     4.5710 h1         1 U7Z       0.071450
     35 H8          20.5150    23.8930     4.1780 h1         1 U7Z       0.071450
     36 H9          20.3670    23.6450     0.0150 h1         1 U7Z       0.067950
     37 H10         19.7080    25.2310     0.4410 h1         1 U7Z       0.067950
     38 H11         18.1990    23.4200     1.2160 h1         1 U7Z       0.071450
     39 H12         19.5220    22.6450     2.0900 h1         1 U7Z       0.071450
     40 H13         18.1790    24.1070     5.6480 ha         1 U7Z       0.130000
     41 H14         17.4940    24.9920     7.8420 ha         1 U7Z       0.141000
     42 H15         14.6490    26.1800     9.8080 hn         1 U7Z       0.476500
     43 H16         13.8830    27.3620     9.0890 hn         1 U7Z       0.476500
     44 H17         15.4000    28.2400     5.8780 ha         1 U7Z       0.141000
     45 H18         16.1050    27.3610     3.6810 ha         1 U7Z       0.130000
@<TRIPOS>BOND
     1     1     2 1   
     2     2     3 ar  
     3     2     7 ar  
     4     3     4 ar  
     5     3    28 1   
     6     4     5 ar  
     7     4    29 1   
     8     5     6 ar  
     9     5    30 1   
    10     6     7 ar  
    11     6    31 1   
    12     7     8 1   
    13     8     9 2   
    14     8    10 1   
    15    10    11 1   
    16    10    13 1   
    17    11    12 1   
    18    11    32 1   
    19    11    33 1   
    20    12    15 1   
    21    12    34 1   
    22    12    35 1   
    23    13    14 1   
    24    13    36 1   
    25    13    37 1   
    26    14    15 1   
    27    14    38 1   
    28    14    39 1   
    29    15    16 1   
    30    16    17 2   
    31    16    18 1   
    32    18    19 ar  
    33    18    27 ar  
    34    19    20 ar  
    35    19    40 1   
    36    20    21 ar  
    37    20    41 1   
    38    21    22 1   
    39    21    26 ar  
    40    22    23 2   
    41    22    24 2   
    42    22    25 1   
    43    25    42 1   
    44    25    43 1   
    45    26    27 ar  
    46    26    44 1   
    47    27    45 1   
@<TRIPOS>SUBSTRUCTURE
     1 U7Z         1 TEMP              0 ****  ****    0 ROOT
