@<TRIPOS>MOLECULE
U81
   46    49     1     0     0
SMALL
No Charge or Current Charge


@<TRIPOS>ATOM
      1 C4         -16.8450   -20.8150    14.8690 ca         1 U81      -0.071900
      2 C14        -15.7640   -29.1410    11.4530 cc         1 U81      -0.468200
      3 C5         -16.8590   -21.9100    15.7490 ca         1 U81      -0.017000
      4 C6         -17.4230   -23.1280    15.3370 ca         1 U81      -0.067900
      5 C11        -16.4450   -24.9980     9.9340 c3         1 U81      -0.094400
      6 C7         -17.9670   -23.2580    14.0490 ca         1 U81      -0.025000
      7 C8         -17.9340   -22.1720    13.1480 ca         1 U81      -0.218300
      8 C9         -18.5360   -22.3220    11.7500 c6         1 U81       0.234800
      9 C12        -16.1730   -26.5100    10.0630 c3         1 U81       0.227800
     10 C13        -15.1890   -27.9760    11.8630 cd         1 U81       0.406000
     11 N1         -17.5880   -23.0070    10.8480 n7         1 U81      -0.870400
     12 N2         -15.3200   -26.7980    11.2280 nu         1 U81      -0.846200
     13 C3         -17.3770   -20.9400    13.5700 ca         1 U81       0.194100
     14 N3         -14.4100   -27.9590    12.9980 na         1 U81      -0.800000
     15 C1         -18.8990   -20.9440    11.1680 c6         1 U81      -0.112400
     16 C2         -17.7220   -19.9690    11.3510 c6         1 U81       0.158600
     17 O1         -17.3880   -19.8280    12.7470 os         1 U81      -0.326100
     18 C15        -15.6110   -30.3940    12.1470 c          1 U81       0.634900
     19 O2         -16.1260   -31.4340    11.7640 o          1 U81      -0.596100
     20 C16        -14.8020   -30.2830    13.3250 cc         1 U81      -0.341600
     21 C17        -14.2290   -29.1300    13.7280 cd         1 U81       0.285000
     22 C18        -13.4610   -29.2220    14.9120 cd         1 U81      -0.170000
     23 C19        -13.4510   -30.5000    15.4250 cc         1 U81      -0.224000
     24 S1         -14.4110   -31.5970    14.4180 ss         1 U81       0.304000
     25 Br1        -17.4560   -24.6170    16.5370 br         1 U81      -0.083100
     26 Br2        -16.0950   -19.1520    15.4630 br         1 U81      -0.069100
     27 H3         -16.4430   -21.8120    16.7490 ha         1 U81       0.146000
     28 H4         -15.4930   -24.4530     9.9060 hc         1 U81       0.055700
     29 H5         -16.9400   -24.8200     8.9720 hc         1 U81       0.055700
     30 H6         -18.4140   -24.2040    13.7520 ha         1 U81       0.132000
     31 H7         -19.4620   -22.9170    11.8140 h1         1 U81       0.077700
     32 H10        -17.1340   -27.0380    10.1460 h1         1 U81       0.054700
     33 H11        -15.6760   -26.8630     9.1480 h1         1 U81       0.054700
     34 H12        -16.6890   -22.5170    10.8980 hn         1 U81       0.409000
     35 H14        -14.7650   -26.0320    11.5980 hn         1 U81       0.476000
     36 H15        -19.7840   -20.5470    11.6840 hc         1 U81       0.072700
     37 H16        -19.1660   -21.0310    10.1070 hc         1 U81       0.072700
     38 H17        -16.8390   -20.3380    10.8120 h1         1 U81       0.061200
     39 H18        -17.9750   -18.9800    10.9450 h1         1 U81       0.061200
     40 H19        -12.9400   -28.3840    15.3620 ha         1 U81       0.134000
     41 H20        -12.9580   -30.8820    16.3100 h4         1 U81       0.150000
     42 H2         -13.9780   -27.1010    13.3140 hn         1 U81       0.500000
     43 C10        -17.3400   -24.4450    11.0590 c3         1 U81       0.160800
     44 H1         -16.3720   -29.1940    10.5630 ha         1 U81       0.203000
     45 H8         -18.2890   -25.0000    11.0660 h1         1 U81       0.039700
     46 H9         -16.8440   -24.6150    12.0230 h1         1 U81       0.039700
@<TRIPOS>BOND
     1     1     3 ar  
     2     1    13 ar  
     3     1    26 1   
     4     2    10 2   
     5     2    18 1   
     6     2    44 1   
     7     3     4 ar  
     8     3    27 1   
     9     4     6 ar  
    10     4    25 1   
    11     5     9 1   
    12     5    28 1   
    13     5    29 1   
    14     5    43 1   
    15     6     7 ar  
    16     6    30 1   
    17     7     8 1   
    18     7    13 ar  
    19     8    11 1   
    20     8    15 1   
    21     8    31 1   
    22     9    12 1   
    23     9    32 1   
    24     9    33 1   
    25    10    12 1   
    26    10    14 1   
    27    11    34 1   
    28    11    43 1   
    29    12    35 1   
    30    13    17 1   
    31    14    21 1   
    32    14    42 1   
    33    15    16 1   
    34    15    36 1   
    35    15    37 1   
    36    16    17 1   
    37    16    38 1   
    38    16    39 1   
    39    18    19 2   
    40    18    20 1   
    41    20    21 2   
    42    20    24 1   
    43    21    22 1   
    44    22    23 2   
    45    22    40 1   
    46    23    24 1   
    47    23    41 1   
    48    43    45 1   
    49    43    46 1   
@<TRIPOS>SUBSTRUCTURE
     1 U81         1 TEMP              0 ****  ****    0 ROOT
