@<TRIPOS>MOLECULE
U81
   46    49     1     0     0
SMALL
bcc


@<TRIPOS>ATOM
      1 C4         -16.8440   -21.1070    14.8510 ca         1 U81      -0.071900
      2 C14        -15.8180   -29.1250    11.6200 cc         1 U81      -0.418200
      3 C5         -17.1830   -22.1380    15.7110 ca         1 U81      -0.035000
      4 C6         -17.9760   -23.1690    15.2310 ca         1 U81      -0.067900
      5 C11        -16.7240   -25.1310    10.0170 c3         1 U81      -0.094400
      6 C7         -18.4130   -23.1740    13.9180 ca         1 U81      -0.043000
      7 C8         -18.0520   -22.1520    13.0490 ca         1 U81      -0.218300
      8 C9         -18.4820   -22.1830    11.5960 c6         1 U81       0.234800
      9 C12        -16.4900   -26.5930    10.3580 c3         1 U81       0.227800
     10 C13        -15.3020   -27.9150    12.0530 cd         1 U81       0.406000
     11 N1         -17.6180   -22.9790    10.7370 n7         1 U81      -0.815200
     12 N2         -15.6460   -26.7190    11.5280 nu         1 U81      -0.791000
     13 C3         -17.2710   -21.0910    13.5200 ca         1 U81       0.194100
     14 N3         -14.4080   -27.8810    13.0810 na         1 U81      -0.606400
     15 C1         -18.5500   -20.7480    11.0910 c6         1 U81      -0.112400
     16 C2         -17.2580   -20.0200    11.3870 c6         1 U81       0.135400
     17 O1         -16.9300   -20.0340    12.7770 os         1 U81      -0.302900
     18 C15        -15.4640   -30.3790    12.2120 c          1 U81       0.634900
     19 O2         -15.8970   -31.4820    11.8540 o          1 U81      -0.596100
     20 C16        -14.5160   -30.2390    13.2950 cc         1 U81      -0.196700
     21 C17        -14.0130   -29.0290    13.7030 cd         1 U81       0.146600
     22 C18        -13.0910   -29.1390    14.7830 cd         1 U81      -0.188000
     23 C19        -12.9270   -30.4360    15.1550 cc         1 U81      -0.097100
     24 S1         -13.8650   -31.5320    14.2250 ss         1 U81       0.014200
     25 BR1        -18.4680   -24.5770    16.3890 br         1 U81      -0.083100
     26 BR2        -15.7870   -19.6860    15.4910 br         1 U81      -0.069100
     27 H3         -16.8370   -22.1290    16.7360 ha         1 U81       0.164000
     28 H4         -15.7580   -24.6400     9.8580 hc         1 U81       0.055700
     29 H5         -17.2550   -25.0830     9.0650 hc         1 U81       0.055700
     30 H6         -19.0480   -23.9710    13.5510 ha         1 U81       0.150000
     31 H7         -19.4810   -22.6260    11.5470 h1         1 U81       0.077700
     32 H10        -17.4480   -27.0820    10.5540 h1         1 U81       0.054700
     33 H11        -16.0420   -27.1030     9.4970 h1         1 U81       0.054700
     34 H12        -16.6840   -22.5840    10.7210 hn         1 U81       0.353800
     35 H14        -15.0280   -25.9420    11.7130 hn         1 U81       0.420800
     36 H15        -19.3870   -20.2290    11.5660 hc         1 U81       0.072700
     37 H16        -18.7260   -20.7330    10.0140 hc         1 U81       0.072700
     38 H17        -16.4210   -20.4500    10.8260 h1         1 U81       0.061200
     39 H18        -17.3250   -18.9690    11.1110 h1         1 U81       0.061200
     40 H19        -12.5870   -28.3030    15.2460 ha         1 U81       0.152000
     41 H20        -12.2900   -30.8050    15.9440 h4         1 U81       0.168000
     42 H2         -14.0550   -26.9960    13.4150 hn         1 U81       0.444800
     43 C10        -17.5180   -24.3850    11.0810 c3         1 U81       0.160800
     44 H1         -16.5100   -29.1340    10.7900 ha         1 U81       0.153000
     45 H8         -18.5290   -24.8010    11.1360 h1         1 U81       0.039700
     46 H9         -17.0640   -24.5540    12.0670 h1         1 U81       0.039700
@<TRIPOS>BOND
     1     1     3 ar  
     2     1    13 ar  
     3     1    26 1   
     4     2    10 2   
     5     2    18 1   
     6     2    44 1   
     7     3     4 ar  
     8     3    27 1   
     9     4     6 ar  
    10     4    25 1   
    11     5     9 1   
    12     5    28 1   
    13     5    29 1   
    14     5    43 1   
    15     6     7 ar  
    16     6    30 1   
    17     7     8 1   
    18     7    13 ar  
    19     8    11 1   
    20     8    15 1   
    21     8    31 1   
    22     9    12 1   
    23     9    32 1   
    24     9    33 1   
    25    10    12 1   
    26    10    14 1   
    27    11    34 1   
    28    11    43 1   
    29    12    35 1   
    30    13    17 1   
    31    14    21 1   
    32    14    42 1   
    33    15    16 1   
    34    15    36 1   
    35    15    37 1   
    36    16    17 1   
    37    16    38 1   
    38    16    39 1   
    39    18    19 2   
    40    18    20 1   
    41    20    21 2   
    42    20    24 1   
    43    21    22 1   
    44    22    23 2   
    45    22    40 1   
    46    23    24 1   
    47    23    41 1   
    48    43    45 1   
    49    43    46 1   
@<TRIPOS>SUBSTRUCTURE
     1 U81         1 TEMP              0 ****  ****    0 ROOT
