@<TRIPOS>MOLECULE
U83
   91    95     1     0     0
SMALL
No Charge or Current Charge


@<TRIPOS>ATOM
      1 CBM          6.9620    -1.4070     7.3540 c6         1 U83      -0.077400
      2 CBN          7.4230    -2.8580     7.6380 c6         1 U83      -0.071900
      3 CBO          8.4960    -2.8960     8.7500 c6         1 U83      -0.076400
      4 CBP          9.6970    -1.9930     8.3890 c6         1 U83      -0.071900
      5 CBQ          9.2440    -0.5410     8.1010 c6         1 U83      -0.077400
      6 CBK          8.1590    -0.4790     6.9820 c6         1 U83      -0.049700
      7 CBJ          7.6930     0.9960     6.7140 c3         1 U83      -0.062400
      8 CBL          6.5630     1.0860     5.7070 cc         1 U83      -0.202300
      9 SBU          6.7840     0.6180     4.0140 ss         1 U83       0.317000
     10 CBT          5.1080     1.0260     3.6620 cc         1 U83      -0.057000
     11 ClBV         4.4160     0.8490     2.0790 cl         1 U83      -0.164000
     12 CBS          4.4520     1.4860     4.7730 cd         1 U83      -0.127000
     13 CBR          5.2770     1.5200     5.9310 cd         1 U83      -0.137000
     14 CBH          8.8730     1.9390     6.3160 c          1 U83       0.618100
     15 OBI          9.6410     1.6070     5.4200 o          1 U83      -0.622100
     16 N            9.0230     3.2160     6.9280 n          1 U83      -0.383800
     17 CBF          8.0500     3.7320     7.9430 c6         1 U83       0.096000
     18 CBE          8.0160     5.2670     8.1020 c6         1 U83      -0.093400
     19 CBD          9.4190     5.8480     8.3080 c6         1 U83      -0.078400
     20 CB          10.3060     5.4450     7.1150 c6         1 U83      -0.073400
     21 CA          10.3710     3.9030     6.8730 c6         1 U83       0.041700
     22 C           11.4320     3.1790     7.7580 c          1 U83       0.586100
     23 O           11.8800     2.0790     7.4630 o          1 U83      -0.483000
     24 OAJ         11.6760     3.7870     8.9650 os         1 U83      -0.442100
     25 CAI         12.4620     3.0950     9.9540 c3         1 U83       0.226600
     26 CAK         12.9860     4.1320    10.9490 ca         1 U83      -0.096300
     27 CAL         12.1020     4.9840    11.6440 ca         1 U83      -0.164000
     28 CAP         14.3700     4.2460    11.1840 ca         1 U83      -0.153000
     29 CAO         14.8620     5.1910    12.0990 ca         1 U83      -0.083000
     30 CAN         13.9740     6.0340    12.7880 ca         1 U83      -0.167000
     31 CAM         12.5840     5.9300    12.5630 ca         1 U83       0.197100
     32 OAU         11.6580     6.7390    13.1970 os         1 U83      -0.340100
     33 CAV         12.0230     7.7000    14.2230 c3         1 U83      -0.000400
     34 CAW         12.4500     7.0630    15.5820 c          1 U83       0.702000
     35 OAY         12.2800     5.8650    15.7730 o          1 U83      -0.715000
     36 OAX         12.9490     7.8040    16.4180 o          1 U83      -0.715000
     37 CAH         11.5620     2.0220    10.6290 c3         1 U83      -0.069400
     38 CAG         12.3030     1.1590    11.6780 c3         1 U83      -0.030100
     39 CAD         13.5600     0.4920    11.1250 ca         1 U83      -0.070300
     40 CAC         13.4830    -0.3590    10.0060 ca         1 U83      -0.170000
     41 CAE         14.8100     0.7420    11.7180 ca         1 U83      -0.102000
     42 CAF         15.9760     0.1560    11.2000 ca         1 U83      -0.168000
     43 CAA         15.9060    -0.6920    10.0710 ca         1 U83       0.100100
     44 OAQ         17.0370    -1.2810     9.5300 os         1 U83      -0.326100
     45 CAR         18.3520    -1.0710    10.0720 c3         1 U83       0.147900
     46 CAB         14.6500    -0.9510     9.4710 ca         1 U83       0.108100
     47 OAS         14.6040    -1.7780     8.3600 os         1 U83      -0.328100
     48 CAT         13.3750    -2.0920     7.6810 c3         1 U83       0.146900
     49 HBM          6.4420    -1.0090     8.2370 hc         1 U83       0.046450
     50 HB6          6.2230    -1.4260     6.5420 hc         1 U83       0.046450
     51 HB7          6.5610    -3.4720     7.9310 hc         1 U83       0.039200
     52 HBN          7.8260    -3.3050     6.7180 hc         1 U83       0.039200
     53 HBO          8.0570    -2.5670     9.7020 hc         1 U83       0.041200
     54 HB8          8.8380    -3.9290     8.9040 hc         1 U83       0.041200
     55 HB9         10.2150    -2.4000     7.5090 hc         1 U83       0.039200
     56 HBP         10.4250    -1.9990     9.2120 hc         1 U83       0.039200
     57 HCA         10.1240     0.0480     7.8140 hc         1 U83       0.046450
     58 HBQ          8.8560    -0.0900     9.0250 hc         1 U83       0.046450
     59 HBK          8.6030    -0.8500     6.0480 hc         1 U83       0.063700
     60 HBJ          7.2740     1.3450     7.6600 hc         1 U83       0.071700
     61 HBS          3.4100     1.7910     4.7670 ha         1 U83       0.138000
     62 HBR          4.9200     1.8560     6.9000 ha         1 U83       0.132000
     63 HB5          7.0300     3.4270     7.6700 h1         1 U83       0.063200
     64 HBF          8.2840     3.2750     8.9160 h1         1 U83       0.063200
     65 HB4          7.3690     5.5380     8.9470 hc         1 U83       0.047700
     66 HBE          7.5610     5.7140     7.2070 hc         1 U83       0.047700
     67 HB3          9.8390     5.4940     9.2570 hc         1 U83       0.053200
     68 HBD          9.3640     6.9430     8.3800 hc         1 U83       0.053200
     69 HB2         11.3190     5.8530     7.2410 hc         1 U83       0.055700
     70 HB1          9.9070     5.9210     6.2080 hc         1 U83       0.055700
     71 HA          10.7720     3.7820     5.8580 h1         1 U83       0.103700
     72 HAK         13.3230     2.6050     9.4790 h1         1 U83       0.066700
     73 HAL         11.0320     4.9150    11.4690 ha         1 U83       0.113000
     74 HAP         15.0700     3.5990    10.6580 ha         1 U83       0.101000
     75 HAO         15.9320     5.2710    12.2740 ha         1 U83       0.098000
     76 HAN         14.3800     6.7590    13.4870 ha         1 U83       0.139000
     77 HAX         12.8290     8.3570    13.8720 h1         1 U83       0.033200
     78 HAY         11.1590     8.3420    14.4390 h1         1 U83       0.033200
     79 HAI         10.7080     2.5110    11.1110 hc         1 U83       0.053700
     80 HAJ         11.1400     1.3580     9.8680 hc         1 U83       0.053700
     81 HAG         12.5490     1.7890    12.5420 hc         1 U83       0.060200
     82 HAH         11.6140     0.3920    12.0520 hc         1 U83       0.060200
     83 HAC         12.5120    -0.5460     9.5600 ha         1 U83       0.117000
     84 HAE         14.8830     1.4010    12.5820 ha         1 U83       0.125000
     85 HAF         16.9240     0.3760    11.6840 ha         1 U83       0.115000
     86 HAR         19.0960    -1.6300     9.4910 h1         1 U83       0.035033
     87 HAS         18.6230    -0.0080    10.0380 h1         1 U83       0.035033
     88 HAT         18.4040    -1.4170    11.1130 h1         1 U83       0.035033
     89 HAW         13.5720    -2.7450     6.8220 h1         1 U83       0.037033
     90 HAU         12.6840    -2.6150     8.3530 h1         1 U83       0.037033
     91 HAV         12.8890    -1.1800     7.3110 h1         1 U83       0.037033
@<TRIPOS>BOND
     1     1     2 1   
     2     1     6 1   
     3     1    49 1   
     4     1    50 1   
     5     2     3 1   
     6     2    51 1   
     7     2    52 1   
     8     3     4 1   
     9     3    53 1   
    10     3    54 1   
    11     4     5 1   
    12     4    55 1   
    13     4    56 1   
    14     5     6 1   
    15     5    57 1   
    16     5    58 1   
    17     6     7 1   
    18     6    59 1   
    19     7     8 1   
    20     7    14 1   
    21     7    60 1   
    22     8     9 1   
    23     8    13 2   
    24     9    10 1   
    25    10    11 1   
    26    10    12 2   
    27    12    13 1   
    28    12    61 1   
    29    13    62 1   
    30    14    15 2   
    31    14    16 1   
    32    16    17 1   
    33    16    21 1   
    34    17    18 1   
    35    17    63 1   
    36    17    64 1   
    37    18    19 1   
    38    18    65 1   
    39    18    66 1   
    40    19    20 1   
    41    19    67 1   
    42    19    68 1   
    43    20    21 1   
    44    20    69 1   
    45    20    70 1   
    46    21    22 1   
    47    21    71 1   
    48    22    23 2   
    49    22    24 1   
    50    24    25 1   
    51    25    26 1   
    52    25    37 1   
    53    25    72 1   
    54    26    27 ar  
    55    26    28 ar  
    56    27    31 ar  
    57    27    73 1   
    58    28    29 ar  
    59    28    74 1   
    60    29    30 ar  
    61    29    75 1   
    62    30    31 ar  
    63    30    76 1   
    64    31    32 1   
    65    32    33 1   
    66    33    34 1   
    67    33    77 1   
    68    33    78 1   
    69    34    35 1   
    70    34    36 1   
    71    37    38 1   
    72    37    79 1   
    73    37    80 1   
    74    38    39 1   
    75    38    81 1   
    76    38    82 1   
    77    39    40 ar  
    78    39    41 ar  
    79    40    46 ar  
    80    40    83 1   
    81    41    42 ar  
    82    41    84 1   
    83    42    43 ar  
    84    42    85 1   
    85    43    44 1   
    86    43    46 ar  
    87    44    45 1   
    88    45    86 1   
    89    45    87 1   
    90    45    88 1   
    91    46    47 1   
    92    47    48 1   
    93    48    89 1   
    94    48    90 1   
    95    48    91 1   
@<TRIPOS>SUBSTRUCTURE
     1 U83         1 TEMP              0 ****  ****    0 ROOT
