@<TRIPOS>MOLECULE
U83
   91    95     1     0     0
SMALL
abcg2


@<TRIPOS>ATOM
      1 CBM          6.2660    -0.0490     8.4840 c6         1 U83      -0.077400
      2 CBN          6.3300    -1.2660     9.4030 c6         1 U83      -0.071900
      3 CBO          7.1200    -0.9770    10.6730 c6         1 U83      -0.076400
      4 CBP          8.5110    -0.4550    10.3390 c6         1 U83      -0.071900
      5 CBQ          8.4440     0.7600     9.4210 c6         1 U83      -0.077400
      6 CBK          7.6610     0.4690     8.1410 c6         1 U83      -0.049700
      7 CBJ          7.5940     1.7240     7.2390 c3         1 U83      -0.062400
      8 CBL          6.8060     1.4980     5.9850 cc         1 U83      -0.202300
      9 SBU          7.3480     0.4230     4.7440 ss         1 U83       0.317000
     10 CBT          5.8910     0.6560     3.8590 cc         1 U83      -0.057000
     11 CLBV         5.6610    -0.1320     2.3580 cl         1 U83      -0.164000
     12 CBS          5.0400     1.5240     4.4620 cd         1 U83      -0.127000
     13 CBR          5.5740     1.9990     5.6910 cd         1 U83      -0.137000
     14 CBH          9.0080     2.1520     6.8570 c          1 U83       0.618100
     15 OBI          9.6450     1.4050     6.1240 o          1 U83      -0.622100
     16 N            9.5130     3.3260     7.2920 n          1 U83      -0.383800
     17 CBF          8.9210     4.2220     8.2780 c6         1 U83       0.096000
     18 CBE          8.8160     5.6410     7.7440 c6         1 U83      -0.093400
     19 CBD         10.1810     6.1420     7.2910 c6         1 U83      -0.078400
     20 CB          10.7820     5.1690     6.2860 c6         1 U83      -0.073400
     21 CA          10.8260     3.7390     6.8220 c6         1 U83       0.041700
     22 C           11.9080     3.5470     7.8790 c          1 U83       0.586100
     23 O           12.8990     4.2260     7.9490 o          1 U83      -0.483000
     24 OAJ         11.6620     2.5060     8.6590 os         1 U83      -0.442100
     25 CAI         12.5980     2.2040     9.7130 c3         1 U83       0.226600
     26 CAK         12.4750     3.2290    10.8120 ca         1 U83      -0.096300
     27 CAL         11.2310     3.4900    11.3700 ca         1 U83      -0.164000
     28 CAP         13.5940     3.9140    11.2730 ca         1 U83      -0.153000
     29 CAO         13.4500     4.8470    12.2890 ca         1 U83      -0.083000
     30 CAN         12.2080     5.1230    12.8450 ca         1 U83      -0.167000
     31 CAM         11.0820     4.4420    12.3790 ca         1 U83       0.197100
     32 OAU          9.8270     4.6540    12.8050 os         1 U83      -0.340100
     33 CAV          9.6090     5.5460    13.8810 c3         1 U83      -0.000400
     34 CAW         10.0650     5.0250    15.2630 c          1 U83       0.702000
     35 OAY         10.3810     3.8290    15.3550 o          1 U83      -0.715000
     36 OAX         10.0280     5.8890    16.1590 o          1 U83      -0.715000
     37 CAH         12.2750     0.7900    10.1780 c3         1 U83      -0.069400
     38 CAG         13.3500     0.2210    11.1080 c3         1 U83      -0.030100
     39 CAD         14.6660    -0.0040    10.4120 ca         1 U83      -0.070300
     40 CAC         14.7590    -0.9810     9.4130 ca         1 U83      -0.170000
     41 CAE         15.7900     0.7450    10.7050 ca         1 U83      -0.102000
     42 CAF         16.9880     0.5400    10.0170 ca         1 U83      -0.168000
     43 CAA         17.0760    -0.4200     9.0250 ca         1 U83       0.100100
     44 OAQ         18.1800    -0.6930     8.3020 os         1 U83      -0.326100
     45 CAR         19.3470     0.0550     8.5660 c3         1 U83       0.147900
     46 CAB         15.9360    -1.1950     8.7190 ca         1 U83       0.108100
     47 OAS         16.0990    -2.1080     7.7440 os         1 U83      -0.328100
     48 CAT         14.9940    -2.9120     7.3900 c3         1 U83       0.146900
     49 HBM          5.6950     0.7500     8.9720 hc         1 U83       0.046450
     50 HB6          5.7220    -0.3070     7.5730 hc         1 U83       0.046450
     51 HB7          5.3180    -1.5940     9.6500 hc         1 U83       0.039200
     52 HBN          6.8010    -2.0960     8.8640 hc         1 U83       0.039200
     53 HBO          6.5860    -0.2280    11.2700 hc         1 U83       0.041200
     54 HB8          7.1880    -1.8750    11.2910 hc         1 U83       0.041200
     55 HB9          9.0900    -1.2450     9.8500 hc         1 U83       0.039200
     56 HBP          9.0530    -0.1960    11.2520 hc         1 U83       0.039200
     57 HCA          9.4590     1.0870     9.1850 hc         1 U83       0.046450
     58 HBQ          7.9660     1.5910     9.9550 hc         1 U83       0.046450
     59 HBK          8.1880    -0.3170     7.5850 hc         1 U83       0.063700
     60 HBJ          7.0540     2.4940     7.7900 hc         1 U83       0.071700
     61 HBS          4.0820     1.8170     4.0570 ha         1 U83       0.138000
     62 HBR          5.0520     2.6840     6.3450 ha         1 U83       0.132000
     63 HB5          7.9460     3.8620     8.5860 h1         1 U83       0.063200
     64 HBF          9.5440     4.2170     9.1800 h1         1 U83       0.063200
     65 HB4          8.4080     6.2800     8.5290 hc         1 U83       0.047700
     66 HBE          8.1120     5.6630     6.9080 hc         1 U83       0.047700
     67 HB3         10.8410     6.2430     8.1570 hc         1 U83       0.053200
     68 HBD         10.0980     7.1340     6.8440 hc         1 U83       0.053200
     69 HB2         11.7830     5.4750     5.9850 hc         1 U83       0.055700
     70 HB1         10.1710     5.1570     5.3800 hc         1 U83       0.055700
     71 HA          11.1110     3.0750     6.0020 h1         1 U83       0.103700
     72 HAK         13.6110     2.2280     9.3020 h1         1 U83       0.066700
     73 HAL         10.3500     2.9570    11.0310 ha         1 U83       0.113000
     74 HAP         14.5660     3.7240    10.8370 ha         1 U83       0.101000
     75 HAO         14.3180     5.3800    12.6550 ha         1 U83       0.098000
     76 HAN         12.1380     5.8640    13.6290 ha         1 U83       0.139000
     77 HAX         10.0540     6.5260    13.6770 h1         1 U83       0.033200
     78 HAY          8.5270     5.6960    13.9090 h1         1 U83       0.033200
     79 HAI         11.3110     0.7790    10.6910 hc         1 U83       0.053700
     80 HAJ         12.1770     0.1410     9.3030 hc         1 U83       0.053700
     81 HAG         13.4900     0.8840    11.9650 hc         1 U83       0.060200
     82 HAH         12.9800    -0.7250    11.5090 hc         1 U83       0.060200
     83 HAC         13.8820    -1.5760     9.1860 ha         1 U83       0.117000
     84 HAE         15.7470     1.5080    11.4730 ha         1 U83       0.125000
     85 HAF         17.8450     1.1490    10.2740 ha         1 U83       0.115000
     86 HAR         20.1110    -0.3120     7.8860 h1         1 U83       0.035033
     87 HAS         19.1990     1.1240     8.3850 h1         1 U83       0.035033
     88 HAT         19.6980    -0.0790     9.5930 h1         1 U83       0.035033
     89 HAW         15.3300    -3.5670     6.5900 h1         1 U83       0.037033
     90 HAU         14.6500    -3.5270     8.2260 h1         1 U83       0.037033
     91 HAV         14.1520    -2.3150     7.0260 h1         1 U83       0.037033
@<TRIPOS>BOND
     1     1     2 1   
     2     1     6 1   
     3     1    49 1   
     4     1    50 1   
     5     2     3 1   
     6     2    51 1   
     7     2    52 1   
     8     3     4 1   
     9     3    53 1   
    10     3    54 1   
    11     4     5 1   
    12     4    55 1   
    13     4    56 1   
    14     5     6 1   
    15     5    57 1   
    16     5    58 1   
    17     6     7 1   
    18     6    59 1   
    19     7     8 1   
    20     7    14 1   
    21     7    60 1   
    22     8     9 1   
    23     8    13 2   
    24     9    10 1   
    25    10    11 1   
    26    10    12 2   
    27    12    13 1   
    28    12    61 1   
    29    13    62 1   
    30    14    15 2   
    31    14    16 1   
    32    16    17 1   
    33    16    21 1   
    34    17    18 1   
    35    17    63 1   
    36    17    64 1   
    37    18    19 1   
    38    18    65 1   
    39    18    66 1   
    40    19    20 1   
    41    19    67 1   
    42    19    68 1   
    43    20    21 1   
    44    20    69 1   
    45    20    70 1   
    46    21    22 1   
    47    21    71 1   
    48    22    23 2   
    49    22    24 1   
    50    24    25 1   
    51    25    26 1   
    52    25    37 1   
    53    25    72 1   
    54    26    27 ar  
    55    26    28 ar  
    56    27    31 ar  
    57    27    73 1   
    58    28    29 ar  
    59    28    74 1   
    60    29    30 ar  
    61    29    75 1   
    62    30    31 ar  
    63    30    76 1   
    64    31    32 1   
    65    32    33 1   
    66    33    34 1   
    67    33    77 1   
    68    33    78 1   
    69    34    35 1   
    70    34    36 1   
    71    37    38 1   
    72    37    79 1   
    73    37    80 1   
    74    38    39 1   
    75    38    81 1   
    76    38    82 1   
    77    39    40 ar  
    78    39    41 ar  
    79    40    46 ar  
    80    40    83 1   
    81    41    42 ar  
    82    41    84 1   
    83    42    43 ar  
    84    42    85 1   
    85    43    44 1   
    86    43    46 ar  
    87    44    45 1   
    88    45    86 1   
    89    45    87 1   
    90    45    88 1   
    91    46    47 1   
    92    47    48 1   
    93    48    89 1   
    94    48    90 1   
    95    48    91 1   
@<TRIPOS>SUBSTRUCTURE
     1 U83         1 TEMP              0 ****  ****    0 ROOT
