@<TRIPOS>MOLECULE
U85
   59    63     1     0     0
SMALL
bcc


@<TRIPOS>ATOM
      1 C1          -7.1850     3.8360     0.5280 c3         1 U85       0.006600
      2 N1          -7.0870     2.8270    -0.5120 nh         1 U85      -0.217100
      3 C2          -7.4830     3.1610    -1.8690 c3         1 U85       0.006600
      4 C3          -6.6270     1.6130    -0.2270 cc         1 U85       0.434900
      5 C4          -6.5130     0.5980    -1.2140 cc         1 U85      -0.333100
      6 C5          -6.0180    -0.6250    -0.8860 cd         1 U85       0.125500
      7 C6          -6.2210     1.2500     1.0850 cc         1 U85      -0.333100
      8 C7          -5.7380     0.0040     1.3330 cd         1 U85       0.125500
      9 N2          -5.6330    -0.9300     0.3680 na         1 U85      -0.422200
     10 C8          -5.0070    -2.2290     0.6600 c3         1 U85       0.253100
     11 C9          -3.5170    -2.1650     0.4760 ca         1 U85      -0.163300
     12 C10         -2.6860    -1.8150     1.5350 ca         1 U85      -0.102000
     13 C11         -1.3170    -1.7120     1.3540 ca         1 U85      -0.115000
     14 C12         -2.9460    -2.4220    -0.7660 ca         1 U85      -0.102000
     15 C13         -1.5770    -2.3190    -0.9490 ca         1 U85      -0.115000
     16 C14         -0.7390    -1.9590     0.1080 cp         1 U85       0.018000
     17 C15          0.7200    -1.8490    -0.0880 cp         1 U85      -0.054000
     18 C16          1.2460    -1.3490    -1.2780 ca         1 U85      -0.113000
     19 C17          2.6160    -1.2460    -1.4630 ca         1 U85      -0.096000
     20 C18          1.6090    -2.2480     0.9120 ca         1 U85      -0.113000
     21 C19          2.9770    -2.1510     0.7230 ca         1 U85      -0.096000
     22 C20          3.4970    -1.6470    -0.4660 ca         1 U85      -0.097300
     23 C21          4.9850    -1.5350    -0.6570 c3         1 U85       0.088600
     24 N3           5.5350    -0.3800     0.0510 na         1 U85      -0.175900
     25 C22          5.4040     0.8840    -0.4500 cc         1 U85      -0.040300
     26 N4           4.8690     1.2720    -1.5990 nd         1 U85      -0.442300
     27 C23          5.0410     2.6150    -1.5380 cd         1 U85       0.530200
     28 N5           5.6330     3.1040    -0.4600 nc         1 U85      -0.589100
     29 C24          5.8820     1.9830     0.2690 cc         1 U85      -0.177900
     30 C25          6.4920     1.7630     1.5090 cd         1 U85       0.807200
     31 N6           6.9730     2.7350     2.2730 nv         1 U85      -0.923500
     32 N7           6.6040     0.4900     1.9560 nd         1 U85      -0.808000
     33 C26          6.1380    -0.4940     1.2410 cc         1 U85       0.594400
     34 H1          -7.8550     3.5210     1.3280 h1         1 U85       0.069700
     35 H2          -6.2070     4.0590     0.9580 h1         1 U85       0.069700
     36 H3          -7.5820     4.7500     0.1000 h1         1 U85       0.069700
     37 H4          -7.7840     4.2020    -1.9050 h1         1 U85       0.069700
     38 H5          -6.6580     3.0230    -2.5690 h1         1 U85       0.069700
     39 H6          -8.3270     2.5530    -2.2000 h1         1 U85       0.069700
     40 H7          -6.8080     0.7610    -2.2390 ha         1 U85       0.180500
     41 H8          -5.9220    -1.4070    -1.6250 h4         1 U85       0.188000
     42 H9          -6.2790     1.9380     1.9130 ha         1 U85       0.180500
     43 H10         -5.4240    -0.2880     2.3250 h4         1 U85       0.188000
     44 H12         -5.2730    -2.5010     1.6800 h1         1 U85       0.087700
     45 H13         -5.4590    -2.9670    -0.0010 h1         1 U85       0.087700
     46 H14         -3.1060    -1.6160     2.5140 ha         1 U85       0.129000
     47 H15         -0.6960    -1.4230     2.1920 ha         1 U85       0.151500
     48 H16         -3.5690    -2.7200    -1.6010 ha         1 U85       0.129000
     49 H17         -1.1570    -2.5460    -1.9200 ha         1 U85       0.151500
     50 H18          0.5820    -1.0160    -2.0660 ha         1 U85       0.135000
     51 H19          3.0020    -0.8370    -2.3870 ha         1 U85       0.147500
     52 H20          1.2340    -2.6660     1.8370 ha         1 U85       0.135000
     53 H21          3.6420    -2.4890     1.5100 ha         1 U85       0.147500
     54 H22          5.4940    -2.4210    -0.2780 h1         1 U85       0.080200
     55 H23          5.2400    -1.4330    -1.7100 h1         1 U85       0.080200
     56 H24          4.7040     3.2530    -2.3450 h5         1 U85       0.051800
     57 H25          6.9290     3.6950     1.9760 hn         1 U85       0.461300
     58 H26          7.4240     2.5250     3.1470 hn         1 U85       0.461300
     59 H27          6.2460    -1.5030     1.6210 h5         1 U85       0.047100
@<TRIPOS>BOND
     1     1     2 1   
     2     1    34 1   
     3     1    35 1   
     4     1    36 1   
     5     2     3 1   
     6     2     4 2   
     7     3    37 1   
     8     3    38 1   
     9     3    39 1   
    10     4     5 1   
    11     4     7 1   
    12     5     6 2   
    13     5    40 1   
    14     6     9 1   
    15     6    41 1   
    16     7     8 2   
    17     7    42 1   
    18     8     9 1   
    19     8    43 1   
    20     9    10 1   
    21    10    11 1   
    22    10    44 1   
    23    10    45 1   
    24    11    12 ar  
    25    11    14 ar  
    26    12    13 ar  
    27    12    46 1   
    28    13    16 ar  
    29    13    47 1   
    30    14    15 ar  
    31    14    48 1   
    32    15    16 ar  
    33    15    49 1   
    34    16    17 1   
    35    17    18 ar  
    36    17    20 ar  
    37    18    19 ar  
    38    18    50 1   
    39    19    22 ar  
    40    19    51 1   
    41    20    21 ar  
    42    20    52 1   
    43    21    22 ar  
    44    21    53 1   
    45    22    23 1   
    46    23    24 1   
    47    23    54 1   
    48    23    55 1   
    49    24    25 1   
    50    24    33 1   
    51    25    26 2   
    52    25    29 1   
    53    26    27 1   
    54    27    28 2   
    55    27    56 1   
    56    28    29 1   
    57    29    30 2   
    58    30    31 1   
    59    30    32 1   
    60    31    57 1   
    61    31    58 1   
    62    32    33 2   
    63    33    59 1   
@<TRIPOS>SUBSTRUCTURE
     1 U85         1 TEMP              0 ****  ****    0 ROOT
