@<TRIPOS>MOLECULE
U85
   59    63     1     0     0
SMALL
No Charge or Current Charge


@<TRIPOS>ATOM
      1 C1          -7.9040     3.8100     0.4260 c3         1 U85       0.035900
      2 N1          -7.7360     2.7410    -0.5810 nh         1 U85      -0.275700
      3 C2          -8.3010     3.0160    -1.9190 c3         1 U85       0.035900
      4 C3          -7.0840     1.5460    -0.2870 cc         1 U85       0.434900
      5 C4          -7.3040     0.3760    -1.0480 cc         1 U85      -0.383100
      6 C5          -6.6720    -0.8180    -0.7780 cd         1 U85       0.075500
      7 C6          -6.1710     1.4460     0.7870 cc         1 U85      -0.383100
      8 C7          -5.5130     0.2760     1.0960 cd         1 U85       0.075500
      9 N2          -5.7650    -0.8720     0.3090 na         1 U85      -0.422200
     10 C8          -5.0610    -2.1390     0.6280 c3         1 U85       0.253100
     11 C9          -3.5410    -2.0470     0.4800 ca         1 U85      -0.163300
     12 C10         -2.7030    -2.6650     1.4280 ca         1 U85      -0.084000
     13 C11         -1.3060    -2.5890     1.2990 ca         1 U85      -0.097000
     14 C12         -2.9580    -1.3600    -0.6030 ca         1 U85      -0.084000
     15 C13         -1.5600    -1.2850    -0.7290 ca         1 U85      -0.097000
     16 C14         -0.7030    -1.8970     0.2200 cp         1 U85       0.018000
     17 C15          0.7870    -1.8160     0.0850 cp         1 U85      -0.054000
     18 C16          1.4150    -0.6570    -0.4350 ca         1 U85      -0.095000
     19 C17          2.8120    -0.5800    -0.5610 ca         1 U85      -0.078000
     20 C18          1.6180    -2.8970     0.4690 ca         1 U85      -0.095000
     21 C19          3.0160    -2.8230     0.3420 ca         1 U85      -0.078000
     22 C20          3.6240    -1.6620    -0.1700 ca         1 U85      -0.097300
     23 C21          5.1440    -1.5890    -0.3040 c3         1 U85       0.117900
     24 N3           5.7270    -0.3350     0.2190 na         1 U85      -0.154500
     25 C22          6.1320     0.7320    -0.5620 cc         1 U85      -0.091000
     26 N4           6.0520     0.7350    -1.8650 nd         1 U85      -0.442300
     27 C23          6.5810     2.0120    -2.1490 cd         1 U85       0.530200
     28 N5           6.9500     2.7100    -1.0520 nc         1 U85      -0.589100
     29 C24          6.6480     1.8620    -0.0270 cc         1 U85      -0.112600
     30 C25          6.8010     2.0150     1.3330 cd         1 U85       0.741900
     31 N6           7.3050     3.0660     1.9730 nv         1 U85      -1.033900
     32 N7           6.4380     0.9960     2.1740 nd         1 U85      -0.808000
     33 C26          5.9140    -0.1260     1.6120 cc         1 U85       0.594400
     34 H1          -8.1210     3.3810     1.4120 h1         1 U85       0.069700
     35 H2          -6.9890     4.4130     0.4960 h1         1 U85       0.069700
     36 H3          -8.7360     4.4740     0.1600 h1         1 U85       0.069700
     37 H4          -8.4200     4.0950    -2.0810 h1         1 U85       0.069700
     38 H5          -7.6380     2.6320    -2.7040 h1         1 U85       0.069700
     39 H6          -9.2850     2.5400    -2.0220 h1         1 U85       0.069700
     40 H7          -8.0080     0.4130    -1.8710 ha         1 U85       0.230500
     41 H8          -6.8340    -1.7290    -1.3560 h4         1 U85       0.238000
     42 H9          -5.9660     2.3280     1.3820 ha         1 U85       0.230500
     43 H10         -4.7970     0.1820     1.9130 h4         1 U85       0.238000
     44 H12         -5.3140    -2.4240     1.6580 h1         1 U85       0.087700
     45 H13         -5.4290    -2.9420    -0.0230 h1         1 U85       0.087700
     46 H14         -3.1320    -3.2030     2.2710 ha         1 U85       0.111000
     47 H15         -0.6830    -3.0620     2.0540 ha         1 U85       0.133500
     48 H16         -3.5850    -0.8830    -1.3540 ha         1 U85       0.111000
     49 H17         -1.1380    -0.7580    -1.5800 ha         1 U85       0.133500
     50 H18          0.8150     0.2000    -0.7320 ha         1 U85       0.117000
     51 H19          3.2600     0.3250    -0.9660 ha         1 U85       0.129500
     52 H20          1.1760    -3.8120     0.8570 ha         1 U85       0.117000
     53 H21          3.6240    -3.6740     0.6430 ha         1 U85       0.129500
     54 H22          5.6020    -2.4300     0.2330 h1         1 U85       0.080200
     55 H23          5.4130    -1.7080    -1.3610 h1         1 U85       0.080200
     56 H24          6.6750     2.3790    -3.1650 h5         1 U85       0.051800
     57 H25          7.8770     3.6710     1.3970 hn         1 U85       0.516500
     58 H26          7.6620     2.8610     2.8960 hn         1 U85       0.516500
     59 H27          5.6070    -0.9460     2.2500 h5         1 U85       0.047100
@<TRIPOS>BOND
     1     1     2 1   
     2     1    34 1   
     3     1    35 1   
     4     1    36 1   
     5     2     3 1   
     6     2     4 2   
     7     3    37 1   
     8     3    38 1   
     9     3    39 1   
    10     4     5 1   
    11     4     7 1   
    12     5     6 2   
    13     5    40 1   
    14     6     9 1   
    15     6    41 1   
    16     7     8 2   
    17     7    42 1   
    18     8     9 1   
    19     8    43 1   
    20     9    10 1   
    21    10    11 1   
    22    10    44 1   
    23    10    45 1   
    24    11    12 ar  
    25    11    14 ar  
    26    12    13 ar  
    27    12    46 1   
    28    13    16 ar  
    29    13    47 1   
    30    14    15 ar  
    31    14    48 1   
    32    15    16 ar  
    33    15    49 1   
    34    16    17 1   
    35    17    18 ar  
    36    17    20 ar  
    37    18    19 ar  
    38    18    50 1   
    39    19    22 ar  
    40    19    51 1   
    41    20    21 ar  
    42    20    52 1   
    43    21    22 ar  
    44    21    53 1   
    45    22    23 1   
    46    23    24 1   
    47    23    54 1   
    48    23    55 1   
    49    24    25 1   
    50    24    33 1   
    51    25    26 2   
    52    25    29 1   
    53    26    27 1   
    54    27    28 2   
    55    27    56 1   
    56    28    29 1   
    57    29    30 2   
    58    30    31 1   
    59    30    32 1   
    60    31    57 1   
    61    31    58 1   
    62    32    33 2   
    63    33    59 1   
@<TRIPOS>SUBSTRUCTURE
     1 U85         1 TEMP              0 ****  ****    0 ROOT
