@<TRIPOS>MOLECULE
U86
   45    47     1     0     0
SMALL
No Charge or Current Charge


@<TRIPOS>ATOM
      1 C4         -27.2970     4.9930    56.4220 ca         1 U86       0.391900
      2 C14        -35.8630     5.7770    63.0490 ca         1 U86      -0.151000
      3 C5         -27.1500     4.4270    58.6050 ca         1 U86       0.405900
      4 C6         -27.8670     5.5850    58.9750 ca         1 U86      -0.283300
      5 C11        -32.4570     5.4710    61.3290 cp         1 U86       0.010000
      6 C7         -28.1930     5.9140    60.4410 c3         1 U86       0.055200
      7 C8         -29.6770     5.7580    60.7580 ca         1 U86      -0.111300
      8 C9         -30.3490     4.5610    60.4480 ca         1 U86      -0.110000
      9 C10        -31.7190     4.4210    60.7270 ca         1 U86      -0.110500
     10 C12        -33.9190     5.3240    61.6230 cp         1 U86      -0.090000
     11 C13        -34.4950     5.9160    62.7740 ca         1 U86      -0.121000
     12 N1         -27.9860     6.1190    56.6260 nb         1 U86      -0.282000
     13 N2         -27.0020     4.6960    55.1360 nv         1 U86      -1.049900
     14 C3         -28.2810     6.4240    57.9070 ca         1 U86       0.195300
     15 N3         -26.8600     4.1270    57.3360 nb         1 U86      -0.327000
     16 C1         -30.5850     7.5320    57.7980 c3         1 U86      -0.086100
     17 C15        -36.6890     5.0450    62.1810 ca         1 U86      -0.076000
     18 C16        -36.1540     4.4390    61.0210 ca         1 U86      -0.134600
     19 C17        -37.0450     3.6490    60.0760 c          1 U86       0.705600
     20 C18        -34.7710     4.5880    60.7580 ca         1 U86      -0.068000
     21 C19        -31.7630     6.6660    61.6430 ca         1 U86      -0.110500
     22 C2         -29.0800     7.7160    58.0880 c3         1 U86      -0.129700
     23 C20        -30.3930     6.8080    61.3630 ca         1 U86      -0.110000
     24 N4         -26.6870     3.5150    59.4970 nv         1 U86      -1.070900
     25 O1         -38.2370     3.5580    60.3330 o          1 U86      -0.721000
     26 O2         -36.5400     3.1290    59.0900 o          1 U86      -0.721000
     27 H1         -36.2860     6.2350    63.9390 ha         1 U86       0.087000
     28 H2         -27.6220     5.2880    61.1350 hc         1 U86       0.034700
     29 H3         -27.8570     6.9330    60.6680 hc         1 U86       0.034700
     30 H4         -29.8100     3.7360    59.9880 ha         1 U86       0.103000
     31 H5         -32.2100     3.4820    60.4860 ha         1 U86       0.120000
     32 H6         -33.8740     6.4760    63.4680 ha         1 U86       0.085000
     33 H7         -27.1200     5.4200    54.4320 hn         1 U86       0.476500
     34 H8         -26.3070     3.9770    54.9490 hn         1 U86       0.476500
     35 H9         -31.1250     8.4720    57.9640 hc         1 U86       0.045367
     36 H10        -30.7440     7.2250    56.7570 hc         1 U86       0.045367
     37 H11        -31.0200     6.7670    58.4500 hc         1 U86       0.045367
     38 H12        -37.7470     4.9500    62.4140 ha         1 U86       0.129000
     39 H13        -34.3490     4.1400    59.8620 ha         1 U86       0.132000
     40 H14        -32.2950     7.4990    62.0940 ha         1 U86       0.120000
     41 H15        -28.9610     8.1280    59.0950 hc         1 U86       0.048200
     42 H16        -28.6900     8.4890    57.4140 hc         1 U86       0.048200
     43 H17        -29.8920     7.7410    61.6110 ha         1 U86       0.103000
     44 H18        -26.0190     2.8210    59.1720 hn         1 U86       0.483000
     45 H19        -26.6650     3.7540    60.4830 hn         1 U86       0.483000
@<TRIPOS>BOND
     1     1    12 ar  
     2     1    13 1   
     3     1    15 ar  
     4     2    11 ar  
     5     2    17 ar  
     6     2    27 1   
     7     3     4 ar  
     8     3    15 ar  
     9     3    24 1   
    10     4     6 1   
    11     4    14 ar  
    12     5     9 ar  
    13     5    10 1   
    14     5    21 ar  
    15     6     7 1   
    16     6    28 1   
    17     6    29 1   
    18     7     8 ar  
    19     7    23 ar  
    20     8     9 ar  
    21     8    30 1   
    22     9    31 1   
    23    10    11 ar  
    24    10    20 ar  
    25    11    32 1   
    26    12    14 ar  
    27    13    33 1   
    28    13    34 1   
    29    14    22 1   
    30    16    22 1   
    31    16    35 1   
    32    16    36 1   
    33    16    37 1   
    34    17    18 ar  
    35    17    38 1   
    36    18    19 1   
    37    18    20 ar  
    38    19    25 1   
    39    19    26 1   
    40    20    39 1   
    41    21    23 ar  
    42    21    40 1   
    43    22    41 1   
    44    22    42 1   
    45    23    43 1   
    46    24    44 1   
    47    24    45 1   
@<TRIPOS>SUBSTRUCTURE
     1 U86         1 TEMP              0 ****  ****    0 ROOT
