@<TRIPOS>MOLECULE
U86
   45    47     1     0     0
SMALL
abcg2


@<TRIPOS>ATOM
      1 C4         -27.3470     4.9940    56.4080 ca         1 U86       0.391900
      2 C14        -35.8490     5.7680    63.0050 ca         1 U86      -0.151000
      3 C5         -27.3170     4.4000    58.6100 ca         1 U86       0.405900
      4 C6         -27.9140     5.6340    58.9680 ca         1 U86      -0.283300
      5 C11        -32.4580     5.4660    61.3520 cp         1 U86       0.010000
      6 C7         -28.2480     5.9810    60.4010 c3         1 U86       0.055200
      7 C8         -29.7090     5.7910    60.7520 ca         1 U86      -0.111300
      8 C9         -30.3770     4.6040    60.4450 ca         1 U86      -0.110000
      9 C10        -31.7220     4.4430    60.7410 ca         1 U86      -0.110500
     10 C12        -33.9010     5.3010    61.6430 cp         1 U86      -0.090000
     11 C13        -34.4920     5.9240    62.7490 ca         1 U86      -0.121000
     12 N1         -27.9240     6.1770    56.6290 nb         1 U86      -0.282000
     13 N2         -27.0920     4.6560    55.1060 nv         1 U86      -1.049900
     14 C3         -28.2090     6.4840    57.9080 ca         1 U86       0.195300
     15 N3         -27.0280     4.0910    57.3390 nb         1 U86      -0.327000
     16 C1         -30.4090     7.6920    57.7590 c3         1 U86      -0.086100
     17 C15        -36.6380     4.9870    62.1680 ca         1 U86      -0.076000
     18 C16        -36.0730     4.3500    61.0630 ca         1 U86      -0.134600
     19 C17        -36.9270     3.4830    60.1350 c          1 U86       0.705600
     20 C18        -34.7120     4.5190    60.8150 ca         1 U86      -0.068000
     21 C19        -31.7840     6.6510    61.6630 ca         1 U86      -0.110500
     22 C2         -28.9150     7.8010    58.0940 c3         1 U86      -0.129700
     23 C20        -30.4340     6.8060    61.3710 ca         1 U86      -0.110000
     24 N4         -27.0370     3.4340    59.5260 nv         1 U86      -1.070900
     25 O1         -38.1470     3.3730    60.4220 o          1 U86      -0.721000
     26 O2         -36.3440     2.9440    59.1600 o          1 U86      -0.721000
     27 H1         -36.2900     6.2530    63.8680 ha         1 U86       0.087000
     28 H2         -27.6370     5.3900    61.0860 hc         1 U86       0.034700
     29 H3         -27.9730     7.0170    60.6030 hc         1 U86       0.034700
     30 H4         -29.8390     3.7950    59.9670 ha         1 U86       0.103000
     31 H5         -32.2050     3.5040    60.5040 ha         1 U86       0.120000
     32 H6         -33.8870     6.5180    63.4210 ha         1 U86       0.085000
     33 H7         -27.0730     5.4120    54.4410 hn         1 U86       0.476500
     34 H8         -26.4260     3.9160    54.9520 hn         1 U86       0.476500
     35 H9         -30.8970     8.6610    57.8740 hc         1 U86       0.045367
     36 H10        -30.5470     7.3580    56.7290 hc         1 U86       0.045367
     37 H11        -30.9060     6.9800    58.4190 hc         1 U86       0.045367
     38 H12        -37.6940     4.8610    62.3630 ha         1 U86       0.129000
     39 H13        -34.2930     4.0380    59.9430 ha         1 U86       0.132000
     40 H14        -32.3240     7.4740    62.1140 ha         1 U86       0.120000
     41 H15        -28.7970     8.1660    59.1120 hc         1 U86       0.048200
     42 H16        -28.4490     8.5280    57.4270 hc         1 U86       0.048200
     43 H17        -29.9440     7.7440    61.6030 ha         1 U86       0.103000
     44 H18        -26.4500     2.6740    59.2210 hn         1 U86       0.483000
     45 H19        -27.0100     3.6520    60.5060 hn         1 U86       0.483000
@<TRIPOS>BOND
     1     1    12 ar  
     2     1    13 1   
     3     1    15 ar  
     4     2    11 ar  
     5     2    17 ar  
     6     2    27 1   
     7     3     4 ar  
     8     3    15 ar  
     9     3    24 1   
    10     4     6 1   
    11     4    14 ar  
    12     5     9 ar  
    13     5    10 1   
    14     5    21 ar  
    15     6     7 1   
    16     6    28 1   
    17     6    29 1   
    18     7     8 ar  
    19     7    23 ar  
    20     8     9 ar  
    21     8    30 1   
    22     9    31 1   
    23    10    11 ar  
    24    10    20 ar  
    25    11    32 1   
    26    12    14 ar  
    27    13    33 1   
    28    13    34 1   
    29    14    22 1   
    30    16    22 1   
    31    16    35 1   
    32    16    36 1   
    33    16    37 1   
    34    17    18 ar  
    35    17    38 1   
    36    18    19 1   
    37    18    20 ar  
    38    19    25 1   
    39    19    26 1   
    40    20    39 1   
    41    21    23 ar  
    42    21    40 1   
    43    22    41 1   
    44    22    42 1   
    45    23    43 1   
    46    24    44 1   
    47    24    45 1   
@<TRIPOS>SUBSTRUCTURE
     1 U86         1 TEMP              0 ****  ****    0 ROOT
