@<TRIPOS>MOLECULE
U87
   74    78     1     0     0
SMALL
No Charge or Current Charge


@<TRIPOS>ATOM
      1 C           -6.3900   -18.5320   -73.9720 c          1 U87       0.693000
      2 N           -5.3290   -16.1570   -73.5870 n8         1 U87      -1.002200
      3 O           -7.2690   -19.1790   -73.4210 o          1 U87      -0.736000
      4 N1          -2.1670   -15.6760   -85.3730 nb         1 U87      -0.310000
      5 O1          -5.3350   -19.0270   -74.3480 o          1 U87      -0.736000
      6 C2          -1.4240   -15.5090   -84.2520 ca         1 U87       0.173900
      7 C4          -3.2050   -14.9470   -82.9310 ca         1 U87       0.140500
      8 C5          -4.0470   -15.0860   -84.0050 ca         1 U87      -0.099600
      9 C6          -3.4850   -15.4590   -85.2450 ca         1 U87       0.445900
     10 C8          -5.3180   -14.5210   -82.3630 cc         1 U87       0.416700
     11 C11         -7.9140   -16.3990   -78.3780 c3         1 U87       0.181800
     12 C12         -8.2270   -17.8520   -78.8390 c3         1 U87      -0.107400
     13 C13         -8.9530   -18.7570   -77.8050 c3         1 U87      -0.074400
     14 CA          -6.5390   -16.9540   -74.0130 c3         1 U87       0.010500
     15 CB          -7.0740   -16.4680   -75.3900 c3         1 U87      -0.042400
     16 CG          -6.1740   -16.8280   -76.6010 c3         1 U87       0.165800
     17 ND          -6.5330   -16.1410   -77.8760 n3         1 U87      -0.750600
     18 C1          -3.5540   -14.3010   -80.5160 c5         1 U87       0.313300
     19 C14        -10.3770   -18.2920   -77.3300 c6         1 U87      -0.049400
     20 C15        -11.2840   -17.9560   -78.5460 c6         1 U87       0.149800
     21 C16        -13.2400   -19.1090   -77.6660 c6         1 U87       0.201100
     22 C17        -12.3910   -19.7020   -76.5310 ca         1 U87      -0.112300
     23 C18        -11.0340   -19.3130   -76.3670 ca         1 U87      -0.072300
     24 C19        -10.3000   -19.8330   -75.2790 ca         1 U87      -0.078000
     25 C7          -4.4880   -13.4370   -79.5810 c5         1 U87       0.130300
     26 C20        -10.8780   -20.7590   -74.3980 ca         1 U87      -0.082000
     27 C21        -12.2020   -21.1760   -74.5840 ca         1 U87       0.111000
     28 C22        -12.9640   -20.6490   -75.6470 ca         1 U87       0.113000
     29 C3          -4.2110   -14.0850   -78.1950 c5         1 U87       0.112300
     30 C9          -4.1240   -15.5880   -78.6210 c5         1 U87       0.129300
     31 C10         -5.4960   -16.2630   -78.9400 c3         1 U87       0.161800
     32 N10        -12.6960   -17.8240   -78.1470 n7         1 U87      -0.851400
     33 N3          -1.8760   -15.1510   -83.0260 nb         1 U87      -0.203000
     34 N6          -4.2320   -15.6280   -86.3690 nv         1 U87      -1.072900
     35 N7          -5.3800   -14.8270   -83.6730 nd         1 U87      -0.567100
     36 N9          -4.0040   -14.5880   -81.8820 na         1 U87      -0.279300
     37 O3          -2.9810   -13.5760   -77.6330 oh         1 U87      -0.706000
     38 O4          -3.3110   -15.5510   -79.8190 os         1 U87      -0.453000
     39 Cl1        -12.8870   -22.3530   -73.4610 cl         1 U87      -0.198000
     40 Cl2        -14.6370   -21.1870   -75.8690 cl         1 U87      -0.212000
     41 H1          -5.0960   -16.4010   -72.6170 hn         1 U87       0.385000
     42 H2          -4.5170   -16.5060   -74.1100 hn         1 U87       0.385000
     43 H6          -6.1620   -14.2600   -81.7380 h5         1 U87       0.068800
     44 H7          -8.0840   -15.7460   -79.2450 h1         1 U87       0.041200
     45 H8          -8.6540   -16.0800   -77.6340 h1         1 U87       0.041200
     46 H9          -8.8380   -17.7960   -79.7470 hc         1 U87       0.034200
     47 H10         -7.3040   -18.3530   -79.1510 hc         1 U87       0.034200
     48 H11         -9.0430   -19.7570   -78.2480 hc         1 U87       0.064700
     49 H12         -8.2830   -18.8800   -76.9490 hc         1 U87       0.064700
     50 H13         -7.3230   -16.7100   -73.2830 h1         1 U87       0.037700
     51 H14         -7.2050   -15.3800   -75.3560 hc         1 U87       0.028200
     52 H15         -8.0720   -16.8940   -75.5400 hc         1 U87       0.028200
     53 H16         -6.1820   -17.9170   -76.7450 h1         1 U87       0.049700
     54 H17         -5.1480   -16.5600   -76.3240 h1         1 U87       0.049700
     55 H19         -2.5950   -13.7790   -80.6290 h2         1 U87       0.123700
     56 H20        -10.2350   -17.3660   -76.7580 hc         1 U87       0.060700
     57 H21        -11.1960   -18.7470   -79.3070 h1         1 U87       0.051200
     58 H22        -10.9480   -17.0150   -79.0080 h1         1 U87       0.051200
     59 H23        -14.2720   -18.9430   -77.3210 h1         1 U87       0.061200
     60 H24        -13.2830   -19.8310   -78.4960 h1         1 U87       0.061200
     61 H27         -9.2760   -19.5190   -75.0990 ha         1 U87       0.188000
     62 H29         -5.5460   -13.5580   -79.8420 h1         1 U87       0.039700
     63 H30        -10.2970   -21.1550   -73.5690 ha         1 U87       0.151000
     64 H32         -5.0490   -13.9140   -77.5040 h1         1 U87       0.071700
     65 H33         -3.6110   -16.1920   -77.8620 h1         1 U87       0.097700
     66 H34         -5.8820   -15.8290   -79.8700 h1         1 U87       0.036200
     67 H35         -5.3000   -17.3230   -79.1520 h1         1 U87       0.036200
     68 H36        -12.7480   -17.1470   -77.3770 hn         1 U87       0.408000
     69 H38         -3.8310   -16.1700   -87.1290 hn         1 U87       0.502000
     70 H39         -5.2400   -15.6840   -86.2480 hn         1 U87       0.502000
     71 H41         -2.8450   -14.0230   -76.7640 ho         1 U87       0.518000
     72 O2          -4.1510   -12.0460   -79.5420 oh         1 U87      -0.680000
     73 H40         -3.5000   -11.9940   -78.7980 ho         1 U87       0.507000
     74 H5          -0.3530   -15.6800   -84.3450 h5         1 U87       0.041100
@<TRIPOS>BOND
     1     1     3 1   
     2     1     5 1   
     3     1    14 1   
     4     2    14 1   
     5     2    41 1   
     6     2    42 1   
     7     4     6 ar  
     8     4     9 ar  
     9     6    33 ar  
    10     6    74 1   
    11     7     8 ar  
    12     7    33 ar  
    13     7    36 1   
    14     8     9 ar  
    15     8    35 1   
    16     9    34 1   
    17    10    35 2   
    18    10    36 1   
    19    10    43 1   
    20    11    12 1   
    21    11    17 1   
    22    11    44 1   
    23    11    45 1   
    24    12    13 1   
    25    12    46 1   
    26    12    47 1   
    27    13    19 1   
    28    13    48 1   
    29    13    49 1   
    30    14    15 1   
    31    14    50 1   
    32    15    16 1   
    33    15    51 1   
    34    15    52 1   
    35    16    17 1   
    36    16    53 1   
    37    16    54 1   
    38    17    31 1   
    39    18    25 1   
    40    18    36 1   
    41    18    38 1   
    42    18    55 1   
    43    19    20 1   
    44    19    23 1   
    45    19    56 1   
    46    20    32 1   
    47    20    57 1   
    48    20    58 1   
    49    21    22 1   
    50    21    32 1   
    51    21    59 1   
    52    21    60 1   
    53    22    23 ar  
    54    22    28 ar  
    55    23    24 ar  
    56    24    26 ar  
    57    24    61 1   
    58    25    29 1   
    59    25    62 1   
    60    25    72 1   
    61    26    27 ar  
    62    26    63 1   
    63    27    28 ar  
    64    27    39 1   
    65    28    40 1   
    66    29    30 1   
    67    29    37 1   
    68    29    64 1   
    69    30    31 1   
    70    30    38 1   
    71    30    65 1   
    72    31    66 1   
    73    31    67 1   
    74    32    68 1   
    75    34    69 1   
    76    34    70 1   
    77    37    71 1   
    78    72    73 1   
@<TRIPOS>SUBSTRUCTURE
     1 U87         1 TEMP              0 ****  ****    0 ROOT
