@<TRIPOS>MOLECULE
U87
   74    78     1     0     0
SMALL
abcg2


@<TRIPOS>ATOM
      1 C           -6.0300   -19.1930   -74.5160 c          1 U87       0.693000
      2 N           -4.9060   -16.9740   -74.0310 n8         1 U87      -1.002200
      3 O           -7.0810   -19.8670   -74.4330 o          1 U87      -0.736000
      4 N1          -1.1130   -14.3140   -85.1220 nb         1 U87      -0.310000
      5 O1          -4.8990   -19.6220   -74.8160 o          1 U87      -0.736000
      6 C2          -0.8340   -13.8420   -83.9100 ca         1 U87       0.173900
      7 C4          -2.6480   -14.6690   -82.9940 ca         1 U87       0.140500
      8 C5          -3.0720   -15.2250   -84.1910 ca         1 U87      -0.099600
      9 C6          -2.2360   -15.0180   -85.3040 ca         1 U87       0.445900
     10 C8          -4.5480   -15.7290   -82.7690 cc         1 U87       0.416700
     11 C11         -8.2060   -16.3100   -78.0340 c3         1 U87       0.181800
     12 C12         -8.7760   -17.6130   -78.6320 c3         1 U87      -0.107400
     13 C13         -9.4020   -18.6010   -77.6450 c3         1 U87      -0.074400
     14 CA          -6.1690   -17.6730   -74.2490 c3         1 U87       0.010500
     15 CB          -6.9530   -17.0090   -75.3890 c3         1 U87      -0.042400
     16 CG          -6.3110   -17.2130   -76.7570 c3         1 U87       0.165800
     17 ND          -6.7770   -16.2730   -77.7650 n3         1 U87      -0.750600
     18 C1          -3.6330   -14.6430   -80.6890 c5         1 U87       0.313300
     19 C14        -10.6260   -18.0600   -76.8870 c6         1 U87      -0.049400
     20 C15        -11.6900   -17.5620   -77.8690 c6         1 U87       0.149800
     21 C16        -13.5150   -18.6880   -76.8240 c6         1 U87       0.201100
     22 C17        -12.5430   -19.4480   -75.9490 ca         1 U87      -0.112300
     23 C18        -11.1870   -19.1050   -75.9410 ca         1 U87      -0.072300
     24 C19        -10.3360   -19.7420   -75.0390 ca         1 U87      -0.078000
     25 C7          -4.7790   -13.7050   -80.3140 c5         1 U87       0.130300
     26 C20        -10.7900   -20.7390   -74.1960 ca         1 U87      -0.082000
     27 C21        -12.1190   -21.1250   -74.2480 ca         1 U87       0.111000
     28 C22        -12.9850   -20.4770   -75.1170 ca         1 U87       0.113000
     29 C3          -4.9280   -14.0080   -78.8240 c5         1 U87       0.112300
     30 C9          -4.6910   -15.5210   -78.8140 c5         1 U87       0.129300
     31 C10         -5.9730   -16.3350   -78.9700 c3         1 U87       0.161800
     32 N10        -13.0100   -17.4210   -77.2940 n7         1 U87      -0.851400
     33 N3          -1.5350   -13.9670   -82.7970 nb         1 U87      -0.203000
     34 N6          -2.5220   -15.4870   -86.5200 nv         1 U87      -1.072900
     35 N7          -4.2620   -15.8870   -84.0270 nd         1 U87      -0.567100
     36 N9          -3.6120   -15.0010   -82.0850 na         1 U87      -0.279300
     37 O3          -3.9290   -13.2970   -78.1380 oh         1 U87      -0.706000
     38 O4          -3.8140   -15.7920   -79.9160 os         1 U87      -0.453000
     39 CL1        -12.6760   -22.3930   -73.2190 cl         1 U87      -0.198000
     40 CL2        -14.6470   -20.9570   -75.1690 cl         1 U87      -0.212000
     41 H1          -4.5960   -17.1560   -73.0840 hn         1 U87       0.385000
     42 H2          -4.2050   -17.4270   -74.6080 hn         1 U87       0.385000
     43 H6          -5.4240   -16.1270   -82.2780 h5         1 U87       0.068800
     44 H7          -8.4140   -15.4880   -78.7230 h1         1 U87       0.041200
     45 H8          -8.7330   -16.0520   -77.1120 h1         1 U87       0.041200
     46 H9          -9.5170   -17.3540   -79.3910 hc         1 U87       0.034200
     47 H10         -7.9870   -18.1360   -79.1800 hc         1 U87       0.034200
     48 H11         -9.7170   -19.4910   -78.1990 hc         1 U87       0.064700
     49 H12         -8.6440   -18.9420   -76.9380 hc         1 U87       0.064700
     50 H13         -6.7740   -17.5480   -73.3450 h1         1 U87       0.037700
     51 H14         -7.0120   -15.9360   -75.1850 hc         1 U87       0.028200
     52 H15         -7.9770   -17.3870   -75.3870 hc         1 U87       0.028200
     53 H16         -6.4440   -18.2560   -77.0860 h1         1 U87       0.049700
     54 H17         -5.2320   -17.0720   -76.6550 h1         1 U87       0.049700
     55 H19         -2.6710   -14.1610   -80.4850 h2         1 U87       0.123700
     56 H20        -10.3080   -17.2080   -76.2720 hc         1 U87       0.060700
     57 H21        -11.7640   -18.2610   -78.7100 h1         1 U87       0.051200
     58 H22        -11.3850   -16.6020   -78.2900 h1         1 U87       0.051200
     59 H23        -14.4410   -18.5060   -76.2750 h1         1 U87       0.061200
     60 H24        -13.7910   -19.3050   -77.6860 h1         1 U87       0.061200
     61 H27         -9.2900   -19.4690   -74.9750 ha         1 U87       0.188000
     62 H29         -5.6940   -14.0400   -80.8200 h1         1 U87       0.039700
     63 H30        -10.1120   -21.2240   -73.5070 ha         1 U87       0.151000
     64 H32         -5.9290   -13.7710   -78.4450 h1         1 U87       0.071700
     65 H33         -4.1750   -15.8180   -77.8950 h1         1 U87       0.097700
     66 H34         -6.5530   -15.9310   -79.8050 h1         1 U87       0.036200
     67 H35         -5.7050   -17.3650   -79.2520 h1         1 U87       0.036200
     68 H36        -12.9770   -16.7640   -76.5230 hn         1 U87       0.408000
     69 H38         -1.8750   -15.3550   -87.2780 hn         1 U87       0.502000
     70 H39         -3.3320   -16.0600   -86.6790 hn         1 U87       0.502000
     71 H41         -3.9700   -13.5410   -77.2070 ho         1 U87       0.518000
     72 O2          -4.4450   -12.4020   -80.6680 oh         1 U87      -0.680000
     73 H40         -5.2320   -11.8500   -80.6100 ho         1 U87       0.507000
     74 H5           0.0920   -13.2830   -83.8310 h5         1 U87       0.041100
@<TRIPOS>BOND
     1     1     3 1   
     2     1     5 1   
     3     1    14 1   
     4     2    14 1   
     5     2    41 1   
     6     2    42 1   
     7     4     6 ar  
     8     4     9 ar  
     9     6    33 ar  
    10     6    74 1   
    11     7     8 ar  
    12     7    33 ar  
    13     7    36 1   
    14     8     9 ar  
    15     8    35 1   
    16     9    34 1   
    17    10    35 2   
    18    10    36 1   
    19    10    43 1   
    20    11    12 1   
    21    11    17 1   
    22    11    44 1   
    23    11    45 1   
    24    12    13 1   
    25    12    46 1   
    26    12    47 1   
    27    13    19 1   
    28    13    48 1   
    29    13    49 1   
    30    14    15 1   
    31    14    50 1   
    32    15    16 1   
    33    15    51 1   
    34    15    52 1   
    35    16    17 1   
    36    16    53 1   
    37    16    54 1   
    38    17    31 1   
    39    18    25 1   
    40    18    36 1   
    41    18    38 1   
    42    18    55 1   
    43    19    20 1   
    44    19    23 1   
    45    19    56 1   
    46    20    32 1   
    47    20    57 1   
    48    20    58 1   
    49    21    22 1   
    50    21    32 1   
    51    21    59 1   
    52    21    60 1   
    53    22    23 ar  
    54    22    28 ar  
    55    23    24 ar  
    56    24    26 ar  
    57    24    61 1   
    58    25    29 1   
    59    25    62 1   
    60    25    72 1   
    61    26    27 ar  
    62    26    63 1   
    63    27    28 ar  
    64    27    39 1   
    65    28    40 1   
    66    29    30 1   
    67    29    37 1   
    68    29    64 1   
    69    30    31 1   
    70    30    38 1   
    71    30    65 1   
    72    31    66 1   
    73    31    67 1   
    74    32    68 1   
    75    34    69 1   
    76    34    70 1   
    77    37    71 1   
    78    72    73 1   
@<TRIPOS>SUBSTRUCTURE
     1 U87         1 TEMP              0 ****  ****    0 ROOT
