@<TRIPOS>MOLECULE
U88
   10    10     1     0     0
SMALL
abcg2


@<TRIPOS>ATOM
      1 C02         12.1750   -23.2080   -19.6730 cc         1 U88       0.414300
      2 C04         14.0320   -24.3070   -20.0140 cd         1 U88       0.376900
      3 C05         13.5170   -25.0320   -18.9810 cc         1 U88      -0.399200
      4 N03         13.2540   -23.2700   -20.3960 nd         1 U88      -0.634000
      5 N06         14.0910   -26.1710   -18.3540 no         1 U88       0.742200
      6 O07         15.1550   -26.5640   -18.7670 o          1 U88      -0.389500
      7 O08         13.4670   -26.6680   -17.4440 o          1 U88      -0.389500
      8 S09         12.0110   -24.4050   -18.4630 ss         1 U88       0.142600
      9 H1          11.4090   -22.4560   -19.8050 h5         1 U88       0.062100
     10 H041        14.9710   -24.5050   -20.5110 h4         1 U88       0.073100
@<TRIPOS>BOND
     1     1     4 2   
     2     1     8 1   
     3     1     9 1   
     4     2     3 2   
     5     2     4 1   
     6     2    10 1   
     7     3     5 1   
     8     3     8 1   
     9     5     6 1   
    10     5     7 1   
@<TRIPOS>SUBSTRUCTURE
     1 U88         1 TEMP              0 ****  ****    0 ROOT
