@<TRIPOS>MOLECULE
U88
   10    10     1     0     0
SMALL
No Charge or Current Charge


@<TRIPOS>ATOM
      1 C02         12.1570   -23.1760   -19.6900 cc         1 U88       0.414300
      2 C04         14.0400   -24.3130   -20.0140 cd         1 U88       0.376900
      3 C05         13.5190   -25.0410   -18.9710 cc         1 U88      -0.399200
      4 N03         13.2600   -23.2400   -20.4300 nd         1 U88      -0.634000
      5 N06         14.0970   -26.1870   -18.3430 no         1 U88       0.742200
      6 O07         15.1860   -26.5830   -18.7700 o          1 U88      -0.389500
      7 O08         13.4780   -26.7140   -17.4130 o          1 U88      -0.389500
      8 S09         11.9830   -24.3900   -18.4540 ss         1 U88       0.142600
      9 H1          11.3800   -22.4310   -19.8070 h5         1 U88       0.062100
     10 H041        14.9810   -24.5110   -20.5150 h4         1 U88       0.073100
@<TRIPOS>BOND
     1     1     4 2   
     2     1     8 1   
     3     1     9 1   
     4     2     3 2   
     5     2     4 1   
     6     2    10 1   
     7     3     5 1   
     8     3     8 1   
     9     5     6 1   
    10     5     7 1   
@<TRIPOS>SUBSTRUCTURE
     1 U88         1 TEMP              0 ****  ****    0 ROOT
