@<TRIPOS>MOLECULE
U89
   82    83     1     0     0
SMALL
bcc


@<TRIPOS>ATOM
      1 N           66.2700    -6.6100    25.1930 ns         1 U89      -0.507900
      2 CA          64.8680    -6.6410    25.5550 c3         1 U89      -0.024300
      3 CB          64.4230    -8.0090    26.0720 c3         1 U89      -0.061400
      4 CG          64.8410    -9.1570    25.1670 c3         1 U89      -0.199400
      5 CD          64.2640   -10.5360    25.5230 c          1 U89       0.927600
      6 OE1         64.8220   -11.5240    24.9700 o          1 U89      -0.869300
      7 OE2         63.2840   -10.6030    26.2790 o          1 U89      -0.869300
      8 C           64.4700    -5.4400    26.4660 c          1 U89       0.938600
      9 OT1         63.4440    -5.6030    27.1540 o          1 U89      -0.839800
     10 OT2         65.1560    -4.4070    26.3690 o          1 U89      -0.839800
     11 C1          73.7870     1.6770    18.7120 c3         1 U89       0.232400
     12 C2          74.4620     1.0500    19.9200 c3         1 U89      -0.083400
     13 C3          75.7040     0.2500    19.5630 c3         1 U89      -0.091400
     14 C4          76.3000    -0.4910    20.7480 c3         1 U89       0.095000
     15 N5          75.3850    -1.5100    21.2230 ns         1 U89      -0.553900
     16 C6          75.4160    -2.0290    22.4570 c          1 U89       0.678100
     17 O6          76.2070    -1.6830    23.3220 o          1 U89      -0.627100
     18 C7          74.3390    -3.0650    22.7200 c3         1 U89      -0.097300
     19 S           74.5770    -3.7670    24.3690 ss         1 U89      -0.238200
     20 C8          73.1780    -4.8990    24.3880 c3         1 U89      -0.108300
     21 C9          73.4090    -6.1750    23.5880 c          1 U89       0.676100
     22 O9          74.4020    -6.3450    22.9060 o          1 U89      -0.601100
     23 C11         72.5080    -8.3740    22.9630 c3         1 U89       0.109000
     24 C12         71.7330    -8.3720    21.6490 c3         1 U89      -0.099400
     25 C13         71.2430    -9.7690    21.2490 c3         1 U89       0.026800
     26 C14         70.2920   -10.3860    22.2360 cc         1 U89      -0.456400
     27 C15         70.7550   -11.3950    23.1190 c          1 U89       0.742700
     28 O15         71.8900   -11.8720    23.1720 o          1 U89      -0.707500
     29 N16         69.7950   -11.8770    24.0120 ns         1 U89      -0.532400
     30 C17         68.5160   -11.4300    24.0630 cc         1 U89       0.767800
     31 N18         67.6970   -11.9720    24.9600 nv         1 U89      -0.939800
     32 N19         68.0880   -10.4870    23.2560 nd         1 U89      -0.746300
     33 C20         68.9640    -9.9820    22.3600 cd         1 U89       0.480600
     34 N21         68.4510    -8.9890    21.5910 nv         1 U89      -0.831600
     35 C22         71.1880    -6.8760    24.3420 ca         1 U89       0.028600
     36 C23         70.2300    -6.0450    23.7730 ca         1 U89      -0.150000
     37 C24         68.9660    -5.9550    24.3340 ca         1 U89      -0.091000
     38 C25         68.6420    -6.6950    25.4680 ca         1 U89      -0.112600
     39 C26         69.6240    -7.4800    26.0650 ca         1 U89      -0.091000
     40 C27         70.8860    -7.5760    25.5030 ca         1 U89      -0.150000
     41 C28         67.2710    -6.6830    26.0730 c          1 U89       0.681700
     42 O28         67.1160    -6.8060    27.2810 o          1 U89      -0.612100
     43 OP4         74.6390     2.5710    18.0610 os         1 U89      -0.570200
     44 P           74.5670     2.6640    16.3490 p5         1 U89       1.275900
     45 OP1         73.1210     3.0440    16.0330 o          1 U89      -0.929833
     46 OP2         74.9690     1.2700    15.8700 o          1 U89      -0.929833
     47 OP3         75.5920     3.7580    16.0770 o          1 U89      -0.929833
     48 HN          66.4950    -6.6570    24.2140 hn         1 U89       0.285500
     49 HA          64.3410    -6.4740    24.6070 h1         1 U89       0.013700
     50 HB1         64.8040    -8.1750    27.0830 hc         1 U89       0.058700
     51 HB2         63.3380    -7.9890    26.1570 hc         1 U89       0.058700
     52 HG1         64.5380    -8.9420    24.1330 hc         1 U89       0.014200
     53 HG2         65.9310    -9.2390    25.1270 hc         1 U89       0.014200
     54 H11         73.4520     0.8630    18.0530 h1         1 U89      -0.011800
     55 H12         72.8740     2.1860    19.0600 h1         1 U89      -0.011800
     56 H21         74.7270     1.8240    20.6490 hc         1 U89       0.001200
     57 H22         73.7310     0.4030    20.4160 hc         1 U89       0.001200
     58 H31         75.4730    -0.4630    18.7630 hc         1 U89       0.073200
     59 H32         76.4700     0.9130    19.1590 hc         1 U89       0.073200
     60 H41         77.2580    -0.9380    20.4650 h1         1 U89       0.031700
     61 H42         76.5030     0.2090    21.5610 h1         1 U89       0.031700
     62 HN5         74.7410    -1.9030    20.5530 hn         1 U89       0.319500
     63 H71         73.3540    -2.5920    22.6600 h1         1 U89       0.080200
     64 H72         74.3730    -3.8460    21.9590 h1         1 U89       0.080200
     65 H81         72.9910    -5.1470    25.4350 h1         1 U89       0.092200
     66 H82         72.2840    -4.3780    24.0370 h1         1 U89       0.092200
     67 H111        73.5550    -8.6260    22.8040 h1         1 U89       0.061700
     68 H112        72.0990    -9.1350    23.6290 h1         1 U89       0.061700
     69 H121        70.8650    -7.7170    21.7450 hc         1 U89       0.042700
     70 H122        72.3510    -7.9490    20.8530 hc         1 U89       0.042700
     71 H131        70.7820    -9.6980    20.2580 hc         1 U89       0.027700
     72 H132        72.1000   -10.4320    21.1190 hc         1 U89       0.027700
     73 HN6         70.1000   -12.5990    24.6500 hn         1 U89       0.304500
     74 HN81        66.6920   -11.7210    25.0150 hn         1 U89       0.481800
     75 HN82        68.0260   -12.7030    25.5680 hn         1 U89       0.481800
     76 HN11        67.4500    -8.8950    21.5780 hn         1 U89       0.424300
     77 HN12        68.9170    -8.7310    20.7390 hn         1 U89       0.424300
     78 H23         70.4670    -5.4770    22.8820 ha         1 U89       0.126500
     79 H24         68.2370    -5.3010    23.8710 ha         1 U89       0.148000
     80 H26         69.3960    -8.0400    26.9630 ha         1 U89       0.148000
     81 H27         71.6350    -8.2160    25.9530 ha         1 U89       0.126500
     82 N10         72.4250    -7.1020    23.6820 n          1 U89      -0.401000
@<TRIPOS>BOND
     1     1     2 1   
     2     1    41 1   
     3     1    48 1   
     4     2     3 1   
     5     2     8 1   
     6     2    49 1   
     7     3     4 1   
     8     3    50 1   
     9     3    51 1   
    10     4     5 1   
    11     4    52 1   
    12     4    53 1   
    13     5     6 1   
    14     5     7 1   
    15     8     9 1   
    16     8    10 1   
    17    11    12 1   
    18    11    43 1   
    19    11    54 1   
    20    11    55 1   
    21    12    13 1   
    22    12    56 1   
    23    12    57 1   
    24    13    14 1   
    25    13    58 1   
    26    13    59 1   
    27    14    15 1   
    28    14    60 1   
    29    14    61 1   
    30    15    16 1   
    31    15    62 1   
    32    16    17 2   
    33    16    18 1   
    34    18    19 1   
    35    18    63 1   
    36    18    64 1   
    37    19    20 1   
    38    20    21 1   
    39    20    65 1   
    40    20    66 1   
    41    21    22 2   
    42    21    82 1   
    43    23    24 1   
    44    23    67 1   
    45    23    68 1   
    46    23    82 1   
    47    24    25 1   
    48    24    69 1   
    49    24    70 1   
    50    25    26 1   
    51    25    71 1   
    52    25    72 1   
    53    26    27 1   
    54    26    33 2   
    55    27    28 2   
    56    27    29 1   
    57    29    30 1   
    58    29    73 1   
    59    30    31 1   
    60    30    32 2   
    61    31    74 1   
    62    31    75 1   
    63    32    33 1   
    64    33    34 1   
    65    34    76 1   
    66    34    77 1   
    67    35    36 ar  
    68    35    40 ar  
    69    35    82 1   
    70    36    37 ar  
    71    36    78 1   
    72    37    38 ar  
    73    37    79 1   
    74    38    39 ar  
    75    38    41 1   
    76    39    40 ar  
    77    39    80 1   
    78    40    81 1   
    79    41    42 2   
    80    43    44 1   
    81    44    45 1   
    82    44    46 1   
    83    44    47 1   
@<TRIPOS>SUBSTRUCTURE
     1 U89         1 TEMP              0 ****  ****    0 ROOT
