@<TRIPOS>MOLECULE
U89
   82    83     1     0     0
SMALL
No Charge or Current Charge


@<TRIPOS>ATOM
      1 N           66.4640    -7.1810    26.6370 ns         1 U89      -0.440900
      2 CA          65.1960    -7.5460    27.3160 c3         1 U89      -0.024300
      3 CB          64.6780    -8.9350    26.8410 c3         1 U89      -0.061400
      4 CG          64.4110    -9.0170    25.3120 c3         1 U89      -0.199400
      5 CD          63.9960   -10.4440    24.9170 c          1 U89       0.717000
      6 OE1         64.8800   -11.2300    24.6110 o          1 U89      -0.764000
      7 OE2         62.8130   -10.7420    24.9730 o          1 U89      -0.764000
      8 C           65.3030    -7.3800    28.8770 c          1 U89       0.728000
      9 OT1         65.0390    -8.3290    29.6050 o          1 U89      -0.734500
     10 OT2         65.5820    -6.2710    29.3160 o          1 U89      -0.734500
     11 C1          75.1370     0.9790    17.5850 c3         1 U89       0.255600
     12 C2          74.8160     0.8160    19.0920 c3         1 U89      -0.083400
     13 C3          76.0150     0.3660    19.9630 c3         1 U89      -0.091400
     14 C4          75.6960     0.2190    21.4670 c3         1 U89       0.095000
     15 N5          74.7030    -0.8220    21.7410 ns         1 U89      -0.486900
     16 C6          73.3640    -0.6020    21.9850 c          1 U89       0.611100
     17 O6          72.8740     0.5200    22.0290 o          1 U89      -0.627100
     18 C7          72.5360    -1.8750    22.2060 c3         1 U89      -0.049400
     19 S           72.9670    -2.7380    23.7980 ss         1 U89      -0.334000
     20 C8          71.8480    -4.2280    23.6950 c3         1 U89      -0.060400
     21 C9          72.3290    -5.3450    22.7350 c          1 U89       0.609100
     22 O9          73.1220    -5.1020    21.8290 o          1 U89      -0.601100
     23 C11         72.5020    -7.7920    22.2420 c3         1 U89       0.109000
     24 C12         71.6950    -8.2370    20.9970 c3         1 U89      -0.099400
     25 C13         71.2300    -9.7130    21.0160 c3         1 U89       0.026800
     26 C14         70.2040   -10.0330    22.0950 cc         1 U89      -0.456400
     27 C15         70.7110   -10.7400    23.2750 c          1 U89       0.600200
     28 O15         71.8660   -11.0810    23.4680 o          1 U89      -0.632000
     29 N16         69.7560   -11.0090    24.1700 ns         1 U89      -0.465400
     30 C17         68.4810   -10.6690    23.9940 cc         1 U89       0.767800
     31 N18         67.6560   -11.0510    24.9450 nv         1 U89      -1.050200
     32 N19         67.9610   -10.0550    22.9740 nd         1 U89      -0.746300
     33 C20         68.8680    -9.7150    22.0110 cd         1 U89       0.480600
     34 N21         68.2950    -9.0990    20.9810 nv         1 U89      -0.942000
     35 C22         70.7940    -6.9980    23.8730 ca         1 U89      -0.064000
     36 C23         69.5650    -6.3180    23.8050 ca         1 U89      -0.132000
     37 C24         68.5520    -6.5690    24.7440 ca         1 U89      -0.073000
     38 C25         68.7680    -7.4720    25.8120 ca         1 U89      -0.112600
     39 C26         70.0350    -8.0850    25.9240 ca         1 U89      -0.073000
     40 C27         71.0420    -7.8340    24.9760 ca         1 U89      -0.132000
     41 C28         67.6820    -7.8120    26.8160 c          1 U89       0.614700
     42 O28         67.8680    -8.6070    27.7290 o          1 U89      -0.612100
     43 OP4         76.0740     2.0490    17.4120 os         1 U89      -0.593400
     44 P           77.4450     1.7960    16.6080 p5         1 U89       1.275900
     45 OP1         77.1340     1.3840    15.2120 o          1 U89      -0.929833
     46 OP2         78.2560     0.7470    17.2830 o          1 U89      -0.929833
     47 OP3         78.2170     3.0680    16.5790 o          1 U89      -0.929833
     48 HN          66.4120    -6.5150    25.8790 hn         1 U89       0.285500
     49 HA          64.4530    -6.8050    26.9930 h1         1 U89       0.013700
     50 HB1         65.4000    -9.7110    27.1260 hc         1 U89       0.058700
     51 HB2         63.7450    -9.1680    27.3700 hc         1 U89       0.058700
     52 HG1         63.5960    -8.3090    25.1150 hc         1 U89       0.014200
     53 HG2         65.3520    -8.7540    24.8130 hc         1 U89       0.014200
     54 H11         75.5230     0.0290    17.1930 h1         1 U89      -0.011800
     55 H12         74.2070     1.2090    17.0480 h1         1 U89      -0.011800
     56 H21         74.4180     1.7620    19.4810 hc         1 U89       0.001200
     57 H22         74.0110     0.0770    19.1850 hc         1 U89       0.001200
     58 H31         76.4020    -0.5880    19.5840 hc         1 U89       0.073200
     59 H32         76.8260     1.0960    19.8590 hc         1 U89       0.073200
     60 H41         76.6180    -0.0430    22.0020 h1         1 U89       0.031700
     61 H42         75.3450     1.1800    21.8650 h1         1 U89       0.031700
     62 HN5         75.0070    -1.7890    21.7540 hn         1 U89       0.319500
     63 H71         71.4750    -1.6000    22.2120 h1         1 U89       0.080200
     64 H72         72.7190    -2.5460    21.3580 h1         1 U89       0.080200
     65 H81         71.7710    -4.6660    24.6970 h1         1 U89       0.092200
     66 H82         70.8470    -3.9120    23.3830 h1         1 U89       0.092200
     67 H111        73.5180    -7.5150    21.9340 h1         1 U89       0.061700
     68 H112        72.6190    -8.6390    22.9260 h1         1 U89       0.061700
     69 H121        70.8230    -7.5850    20.8660 hc         1 U89       0.042700
     70 H122        72.3220    -8.0830    20.1100 hc         1 U89       0.042700
     71 H131        70.7990    -9.9450    20.0340 hc         1 U89       0.027700
     72 H132        72.1130   -10.3590    21.0880 hc         1 U89       0.027700
     73 HN6         70.0400   -11.4720    25.0150 hn         1 U89       0.304500
     74 HN81        66.6720   -11.0000    24.6670 hn         1 U89       0.537000
     75 HN82        67.8920   -11.9020    25.4300 hn         1 U89       0.537000
     76 HN11        67.2850    -9.1380    20.9410 hn         1 U89       0.479500
     77 HN12        68.7950    -9.0660    20.1030 hn         1 U89       0.479500
     78 H23         69.3680    -5.6300    22.9860 ha         1 U89       0.108500
     79 H24         67.6020    -6.0570    24.6180 ha         1 U89       0.130000
     80 H26         70.2440    -8.7660    26.7460 ha         1 U89       0.130000
     81 H27         72.0130    -8.3060    25.0990 ha         1 U89       0.108500
     82 N10         71.8640    -6.6680    22.9710 n          1 U89      -0.241400
@<TRIPOS>BOND
     1     1     2 1   
     2     1    41 1   
     3     1    48 1   
     4     2     3 1   
     5     2     8 1   
     6     2    49 1   
     7     3     4 1   
     8     3    50 1   
     9     3    51 1   
    10     4     5 1   
    11     4    52 1   
    12     4    53 1   
    13     5     6 1   
    14     5     7 1   
    15     8     9 1   
    16     8    10 1   
    17    11    12 1   
    18    11    43 1   
    19    11    54 1   
    20    11    55 1   
    21    12    13 1   
    22    12    56 1   
    23    12    57 1   
    24    13    14 1   
    25    13    58 1   
    26    13    59 1   
    27    14    15 1   
    28    14    60 1   
    29    14    61 1   
    30    15    16 1   
    31    15    62 1   
    32    16    17 2   
    33    16    18 1   
    34    18    19 1   
    35    18    63 1   
    36    18    64 1   
    37    19    20 1   
    38    20    21 1   
    39    20    65 1   
    40    20    66 1   
    41    21    22 2   
    42    21    82 1   
    43    23    24 1   
    44    23    67 1   
    45    23    68 1   
    46    23    82 1   
    47    24    25 1   
    48    24    69 1   
    49    24    70 1   
    50    25    26 1   
    51    25    71 1   
    52    25    72 1   
    53    26    27 1   
    54    26    33 2   
    55    27    28 2   
    56    27    29 1   
    57    29    30 1   
    58    29    73 1   
    59    30    31 1   
    60    30    32 2   
    61    31    74 1   
    62    31    75 1   
    63    32    33 1   
    64    33    34 1   
    65    34    76 1   
    66    34    77 1   
    67    35    36 ar  
    68    35    40 ar  
    69    35    82 1   
    70    36    37 ar  
    71    36    78 1   
    72    37    38 ar  
    73    37    79 1   
    74    38    39 ar  
    75    38    41 1   
    76    39    40 ar  
    77    39    80 1   
    78    40    81 1   
    79    41    42 2   
    80    43    44 1   
    81    44    45 1   
    82    44    46 1   
    83    44    47 1   
@<TRIPOS>SUBSTRUCTURE
     1 U89         1 TEMP              0 ****  ****    0 ROOT
