@<TRIPOS>MOLECULE
U8B
   65    66     1     0     0
SMALL
abcg2


@<TRIPOS>ATOM
      1 C4         -12.4830     1.8280    56.4970 c3         1 U8B      -0.034100
      2 C5         -13.6360     2.8550    56.3760 c6         1 U8B       0.193400
      3 C7         -16.4250     3.1250    55.7920 c3         1 U8B       0.055600
      4 C8         -17.0300     3.7780    57.0340 c3         1 U8B       0.043700
      5 C13        -18.4440     2.1570    61.4730 c3         1 U8B      -0.039400
      6 C21        -18.8520     6.9290    55.9350 c3         1 U8B      -0.052000
      7 C22        -18.2660     8.3560    56.0130 c          1 U8B       0.719000
      8 C16        -18.4450    -0.3060    62.0230 c          1 U8B       0.688000
      9 O17        -17.4130    -0.5430    62.6860 o          1 U8B      -0.742000
     10 C14        -19.1280     1.0570    62.2910 c3         1 U8B       0.012500
     11 N15        -19.1250     1.4660    63.6930 n8         1 U8B      -0.995200
     12 C12        -18.5160     1.9390    59.9690 c3         1 U8B      -0.145400
     13 O11        -18.0130     4.2620    59.5570 o          1 U8B      -0.618100
     14 N9         -17.4800     2.7790    57.9610 ns         1 U8B      -0.495900
     15 C19        -18.2080     4.6550    56.5750 c          1 U8B       0.579100
     16 O25        -19.3060     4.1630    56.3530 o          1 U8B      -0.648100
     17 N20        -17.9130     5.9420    56.4050 ns         1 U8B      -0.456900
     18 O23        -19.0090     9.2490    55.5740 o          1 U8B      -0.736500
     19 O24        -17.1280     8.4830    56.5070 o          1 U8B      -0.736500
     20 S6         -15.1550     1.8670    56.0890 ss         1 U8B      -0.419000
     21 C3         -11.1640     2.5150    56.7220 ca         1 U8B      -0.082300
     22 C55        -10.7050     2.7790    58.0110 ca         1 U8B      -0.100000
     23 C56         -9.5170     3.4690    58.2140 ca         1 U8B      -0.118500
     24 C57         -8.7670     3.9010    57.1290 ca         1 U8B      -0.119000
     25 C1          -9.2080     3.6310    55.8400 ca         1 U8B      -0.118500
     26 C2         -10.3970     2.9430    55.6400 ca         1 U8B      -0.100000
     27 C53        -13.7430     3.6080    57.6940 c          1 U8B       0.569000
     28 O54        -14.0020     3.0070    58.7190 o          1 U8B      -0.506000
     29 N52        -13.4940     4.9240    57.6720 ns         1 U8B      -0.501900
     30 N26        -13.4110     3.7130    55.2490 ns         1 U8B      -0.493900
     31 C27        -13.1360     5.0240    55.2330 c          1 U8B       0.586000
     32 O28        -12.8810     5.6340    54.2110 o          1 U8B      -0.544000
     33 C29        -13.1850     5.7680    56.5530 c6         1 U8B       0.125400
     34 C50        -11.8320     6.4680    56.7790 c3         1 U8B       0.158600
     35 O51        -11.8470     7.2490    57.9400 oh         1 U8B      -0.648000
     36 S30        -14.5360     6.9970    56.2810 sh         1 U8B      -0.303800
     37 H1         -12.4570     1.2490    55.5710 hc         1 U8B       0.077200
     38 H2         -12.7070     1.1350    57.3080 hc         1 U8B       0.077200
     39 H3         -16.0270     3.8930    55.1270 h1         1 U8B       0.087200
     40 H4         -17.2010     2.5930    55.2360 h1         1 U8B       0.087200
     41 H5         -16.2810     4.4150    57.5110 h1         1 U8B       0.068700
     42 H6         -17.3980     2.2340    61.7870 hc         1 U8B       0.041700
     43 H7         -18.9150     3.1080    61.7260 hc         1 U8B       0.041700
     44 H8         -19.7690     6.8960    56.5320 h1         1 U8B       0.034700
     45 H9         -19.1500     6.7230    54.9020 h1         1 U8B       0.034700
     46 H11        -20.1720     0.9980    61.9640 h1         1 U8B       0.036700
     47 H12        -19.6910     0.8130    64.2220 hn         1 U8B       0.376000
     48 H13        -18.1830     1.3260    64.0440 hn         1 U8B       0.376000
     49 H15        -19.5620     1.8020    59.6690 hc         1 U8B       0.067700
     50 H16        -18.0030     1.0210    59.6760 hc         1 U8B       0.067700
     51 H17        -17.4830     1.8140    57.6740 hn         1 U8B       0.321500
     52 H18        -16.9880     6.2910    56.6210 hn         1 U8B       0.341500
     53 H20        -11.2780     2.4390    58.8660 ha         1 U8B       0.124000
     54 H21         -9.1770     3.6650    59.2230 ha         1 U8B       0.109500
     55 H22         -7.8410     4.4390    57.2860 ha         1 U8B       0.105000
     56 H23         -8.6250     3.9540    54.9870 ha         1 U8B       0.109500
     57 H24        -10.7290     2.7320    54.6310 ha         1 U8B       0.124000
     58 H25        -13.5470     5.3830    58.5730 hn         1 U8B       0.330500
     59 H26        -13.3570     3.2480    54.3500 hn         1 U8B       0.322500
     60 H27        -11.0480     5.7020    56.8080 h1         1 U8B       0.062700
     61 H28        -11.6360     7.1190    55.9270 h1         1 U8B       0.062700
     62 H29        -11.4830     6.7390    58.6700 ho         1 U8B       0.439000
     63 H30        -14.6190     7.4110    57.5500 hs         1 U8B       0.232800
     64 C10        -17.9790     3.1030    59.1680 c          1 U8B       0.605100
     65 O18        -18.9550    -1.0380    61.1490 o          1 U8B      -0.742000
@<TRIPOS>BOND
     1     1     2 1   
     2     1    21 1   
     3     1    37 1   
     4     1    38 1   
     5     2    20 1   
     6     2    27 1   
     7     2    30 1   
     8     3     4 1   
     9     3    20 1   
    10     3    39 1   
    11     3    40 1   
    12     4    14 1   
    13     4    15 1   
    14     4    41 1   
    15     5    10 1   
    16     5    12 1   
    17     5    42 1   
    18     5    43 1   
    19     6     7 1   
    20     6    17 1   
    21     6    44 1   
    22     6    45 1   
    23     7    18 1   
    24     7    19 1   
    25     8     9 1   
    26     8    10 1   
    27     8    65 1   
    28    10    11 1   
    29    10    46 1   
    30    11    47 1   
    31    11    48 1   
    32    12    49 1   
    33    12    50 1   
    34    12    64 1   
    35    13    64 2   
    36    14    51 1   
    37    14    64 1   
    38    15    16 2   
    39    15    17 1   
    40    17    52 1   
    41    21    22 ar  
    42    21    26 ar  
    43    22    23 ar  
    44    22    53 1   
    45    23    24 ar  
    46    23    54 1   
    47    24    25 ar  
    48    24    55 1   
    49    25    26 ar  
    50    25    56 1   
    51    26    57 1   
    52    27    28 2   
    53    27    29 1   
    54    29    33 1   
    55    29    58 1   
    56    30    31 1   
    57    30    59 1   
    58    31    32 2   
    59    31    33 1   
    60    33    34 1   
    61    33    36 1   
    62    34    35 1   
    63    34    60 1   
    64    34    61 1   
    65    35    62 1   
    66    36    63 1   
@<TRIPOS>SUBSTRUCTURE
     1 U8B         1 TEMP              0 ****  ****    0 ROOT
