@<TRIPOS>MOLECULE
U8B
   65    66     1     0     0
SMALL
No Charge or Current Charge


@<TRIPOS>ATOM
      1 C4         -12.8660     1.8610    56.6750 c3         1 U8B      -0.034100
      2 C5         -14.0890     2.8290    56.6520 c6         1 U8B       0.193400
      3 C7         -16.8200     3.1130    55.6480 c3         1 U8B       0.055600
      4 C8         -17.3230     4.0080    56.8070 c3         1 U8B       0.043700
      5 C13        -17.2510     1.8850    61.0880 c3         1 U8B      -0.039400
      6 C21        -18.8590     7.0540    54.9140 c3         1 U8B      -0.052000
      7 C22        -18.0500     8.1140    54.1150 c          1 U8B       0.719000
      8 C16        -18.7260    -0.1840    61.6330 c          1 U8B       0.688000
      9 O17        -18.2100    -1.0930    60.9960 o          1 U8B      -0.742000
     10 C14        -17.7900     0.9580    62.2120 c3         1 U8B       0.012500
     11 N15        -16.6500     0.4920    63.0820 n8         1 U8B      -0.995200
     12 C12        -18.3590     2.5750    60.2550 c3         1 U8B      -0.145400
     13 O11        -17.3520     4.6760    59.6000 o          1 U8B      -0.618100
     14 N9         -17.8080     3.1860    57.9410 ns         1 U8B      -0.495900
     15 C19        -18.4330     4.9780    56.3050 c          1 U8B       0.579100
     16 O25        -19.6230     4.8390    56.5660 o          1 U8B      -0.648100
     17 N20        -17.9860     6.0250    55.5240 ns         1 U8B      -0.456900
     18 O23        -17.1030     7.7340    53.4390 o          1 U8B      -0.736500
     19 O24        -18.3670     9.2890    54.2290 o          1 U8B      -0.736500
     20 S6         -15.5840     1.8210    56.1840 ss         1 U8B      -0.419000
     21 C3         -11.5270     2.5350    56.9700 ca         1 U8B      -0.082300
     22 C55        -11.0490     2.6170    58.2940 ca         1 U8B      -0.100000
     23 C56         -9.8200     3.2410    58.5680 ca         1 U8B      -0.118500
     24 C57         -9.0580     3.7850    57.5210 ca         1 U8B      -0.119000
     25 C1          -9.5240     3.7010    56.1990 ca         1 U8B      -0.118500
     26 C2         -10.7520     3.0750    55.9230 ca         1 U8B      -0.100000
     27 C53        -14.2410     3.4300    58.1020 c          1 U8B       0.569000
     28 O54        -14.4900     2.7390    59.0790 o          1 U8B      -0.506000
     29 N52        -14.1250     4.7920    58.2480 ns         1 U8B      -0.501900
     30 N26        -13.8740     3.8400    55.6030 ns         1 U8B      -0.493900
     31 C27        -13.4530     5.1320    55.8030 c          1 U8B       0.586000
     32 O28        -13.0500     5.7860    54.8520 o          1 U8B      -0.544000
     33 C29        -13.5810     5.7320    57.2460 c6         1 U8B       0.125400
     34 C50        -12.1680     6.2230    57.6910 c3         1 U8B       0.158600
     35 O51        -12.1910     6.8180    59.0050 oh         1 U8B      -0.648000
     36 S30        -14.7260     7.2120    57.1990 sh         1 U8B      -0.303800
     37 H1         -12.8000     1.3430    55.7100 hc         1 U8B       0.077200
     38 H2         -13.0450     1.0650    57.4080 hc         1 U8B       0.077200
     39 H3         -16.3860     3.7340    54.8540 h1         1 U8B       0.087200
     40 H4         -17.6820     2.5900    55.2110 h1         1 U8B       0.087200
     41 H5         -16.4940     4.6330    57.1540 h1         1 U8B       0.068700
     42 H6         -16.6080     1.3050    60.4140 hc         1 U8B       0.041700
     43 H7         -16.6170     2.6600    61.5380 hc         1 U8B       0.041700
     44 H8         -19.4250     7.5590    55.7070 h1         1 U8B       0.034700
     45 H9         -19.5640     6.5690    54.2280 h1         1 U8B       0.034700
     46 H11        -18.4270     1.5800    62.8560 h1         1 U8B       0.036700
     47 H12        -17.0290    -0.0620    63.8600 hn         1 U8B       0.376000
     48 H13        -16.1010    -0.1960    62.5510 hn         1 U8B       0.376000
     49 H15        -19.0230     3.1150    60.9410 hc         1 U8B       0.067700
     50 H16        -18.9250     1.8060    59.7170 hc         1 U8B       0.067700
     51 H17        -18.1850     2.2670    57.7480 hn         1 U8B       0.321500
     52 H18        -16.9880     6.0860    55.3490 hn         1 U8B       0.341500
     53 H20        -11.6300     2.1990    59.1130 ha         1 U8B       0.124000
     54 H21         -9.4580     3.3030    59.5920 ha         1 U8B       0.109500
     55 H22         -8.1070     4.2690    57.7330 ha         1 U8B       0.105000
     56 H23         -8.9340     4.1190    55.3860 ha         1 U8B       0.109500
     57 H24        -11.1020     3.0130    54.8950 ha         1 U8B       0.124000
     58 H25        -14.2500     5.1390    59.1910 hn         1 U8B       0.330500
     59 H26        -13.8250     3.5150    54.6460 hn         1 U8B       0.322500
     60 H27        -11.4840     5.3660    57.6750 h1         1 U8B       0.062700
     61 H28        -11.7990     6.9490    56.9530 h1         1 U8B       0.062700
     62 H29        -11.2640     7.0500    59.2360 ho         1 U8B       0.439000
     63 H30        -14.3470     7.6850    58.4110 hs         1 U8B       0.232800
     64 C10        -17.7750     3.5810    59.2580 c          1 U8B       0.605100
     65 O18        -19.9090    -0.1780    61.9450 o          1 U8B      -0.742000
@<TRIPOS>BOND
     1     1     2 1   
     2     1    21 1   
     3     1    37 1   
     4     1    38 1   
     5     2    20 1   
     6     2    27 1   
     7     2    30 1   
     8     3     4 1   
     9     3    20 1   
    10     3    39 1   
    11     3    40 1   
    12     4    14 1   
    13     4    15 1   
    14     4    41 1   
    15     5    10 1   
    16     5    12 1   
    17     5    42 1   
    18     5    43 1   
    19     6     7 1   
    20     6    17 1   
    21     6    44 1   
    22     6    45 1   
    23     7    18 1   
    24     7    19 1   
    25     8     9 1   
    26     8    10 1   
    27     8    65 1   
    28    10    11 1   
    29    10    46 1   
    30    11    47 1   
    31    11    48 1   
    32    12    49 1   
    33    12    50 1   
    34    12    64 1   
    35    13    64 2   
    36    14    51 1   
    37    14    64 1   
    38    15    16 2   
    39    15    17 1   
    40    17    52 1   
    41    21    22 ar  
    42    21    26 ar  
    43    22    23 ar  
    44    22    53 1   
    45    23    24 ar  
    46    23    54 1   
    47    24    25 ar  
    48    24    55 1   
    49    25    26 ar  
    50    25    56 1   
    51    26    57 1   
    52    27    28 2   
    53    27    29 1   
    54    29    33 1   
    55    29    58 1   
    56    30    31 1   
    57    30    59 1   
    58    31    32 2   
    59    31    33 1   
    60    33    34 1   
    61    33    36 1   
    62    34    35 1   
    63    34    60 1   
    64    34    61 1   
    65    35    62 1   
    66    36    63 1   
@<TRIPOS>SUBSTRUCTURE
     1 U8B         1 TEMP              0 ****  ****    0 ROOT
