@<TRIPOS>MOLECULE
U8C
   91    95     1     0     0
SMALL
No Charge or Current Charge


@<TRIPOS>ATOM
      1 CBM          6.8840    -0.9540     7.3910 c6         1 U8C      -0.077900
      2 CBN          7.4220    -2.3920     7.1820 c6         1 U8C      -0.071900
      3 CBO          8.5450    -2.7230     8.1930 c6         1 U8C      -0.076400
      4 CBP          9.6870    -1.6840     8.1080 c6         1 U8C      -0.071900
      5 CBQ          9.1540    -0.2450     8.3170 c6         1 U8C      -0.077900
      6 CBK          8.0200     0.1120     7.3060 c6         1 U8C      -0.051700
      7 CBJ          7.4730     1.5680     7.5320 c3         1 U8C      -0.057400
      8 CBL          6.3170     1.9110     6.6150 cc         1 U8C      -0.192300
      9 SBU          6.5270     2.0400     4.8650 ss         1 U8C       0.248000
     10 CBT          4.8250     2.4420     4.6570 cc         1 U8C      -0.262000
     11 CBS          4.1740     2.4680     5.8640 cd         1 U8C      -0.136000
     12 CBR          5.0150     2.1690     6.9680 cd         1 U8C      -0.144000
     13 CBH          8.5830     2.6640     7.4480 c          1 U8C       0.617100
     14 OBI          9.4080     2.6310     6.5390 o          1 U8C      -0.622100
     15 N            8.5820     3.7700     8.3460 n          1 U8C      -0.392800
     16 CBF          7.5990     3.8910     9.4720 c6         1 U8C       0.100000
     17 CBE          7.3860     5.3300    10.0040 c6         1 U8C      -0.093400
     18 CBD          8.7110     6.0650    10.2600 c6         1 U8C      -0.078400
     19 CB           9.5430     6.0530     8.9650 c6         1 U8C      -0.072400
     20 CA           9.8380     4.5980     8.4910 c6         1 U8C       0.041700
     21 C           10.9280     3.8670     9.3370 c          1 U8C       0.584100
     22 O           11.1680     2.6740     9.1960 o          1 U8C      -0.490000
     23 OAJ         11.6320     4.6730    10.1990 os         1 U8C      -0.448100
     24 CAI         12.5880     4.0700    11.0910 c3         1 U8C       0.226600
     25 CAK         13.5430     5.1650    11.5690 ca         1 U8C      -0.096300
     26 CAL         13.0530     6.3260    12.2030 ca         1 U8C      -0.156000
     27 CAP         14.9310     5.0260    11.3750 ca         1 U8C      -0.154000
     28 CAO         15.8140     6.0270    11.8120 ca         1 U8C      -0.090000
     29 CAN         15.3180     7.1790    12.4450 ca         1 U8C      -0.161000
     30 CAM         13.9290     7.3320    12.6450 ca         1 U8C       0.185100
     31 OAU         13.3740     8.4490    13.2420 os         1 U8C      -0.345100
     32 CAV         14.1730     9.5360    13.7810 c3         1 U8C       0.008600
     33 CAW         14.9410     9.1850    15.0940 c          1 U8C       0.693000
     34 OAY         14.6940     8.1400    15.6840 o          1 U8C      -0.718000
     35 OAX         15.7770     9.9870    15.4880 o          1 U8C      -0.718000
     36 CAH         11.8140     3.3960    12.2580 c3         1 U8C      -0.068400
     37 CAG         12.7130     2.5530    13.1910 c3         1 U8C      -0.027100
     38 CAD         13.4320     1.4340    12.4430 ca         1 U8C      -0.070300
     39 CAC         14.8280     1.4750    12.2750 ca         1 U8C      -0.155000
     40 CAE         12.6970     0.3720    11.8870 ca         1 U8C      -0.114000
     41 CAF         13.3440    -0.6400    11.1600 ca         1 U8C      -0.167000
     42 CAA         14.7460    -0.6000    10.9800 ca         1 U8C       0.096100
     43 OAQ         15.4160    -1.5780    10.2600 os         1 U8C      -0.332100
     44 CAR         14.7330    -2.6820     9.6390 c3         1 U8C       0.148900
     45 CAB         15.4930     0.4640    11.5410 ca         1 U8C       0.111100
     46 OAS         16.8650     0.4880    11.3470 os         1 U8C      -0.339100
     47 CAT         17.7000     1.5500    11.8470 c3         1 U8C       0.143900
     48 HBM          6.3830    -0.8880     8.3670 hc         1 U8C       0.046700
     49 HB6          6.1130    -0.7540     6.6340 hc         1 U8C       0.046700
     50 HB7          6.6020    -3.1150     7.2880 hc         1 U8C       0.039200
     51 HBN          7.8030    -2.4990     6.1560 hc         1 U8C       0.039200
     52 HBO          8.1340    -2.7420     9.2120 hc         1 U8C       0.043200
     53 HB8          8.9400    -3.7300     7.9960 hc         1 U8C       0.043200
     54 HB9         10.1820    -1.7570     7.1290 hc         1 U8C       0.039200
     55 HBP         10.4530    -1.9110     8.8630 hc         1 U8C       0.039200
     56 HCA          9.9930     0.4550     8.2130 hc         1 U8C       0.046700
     57 HBQ          8.7850    -0.1360     9.3470 hc         1 U8C       0.046700
     58 HBK          8.4420     0.0840     6.2910 hc         1 U8C       0.062700
     59 HBJ          7.0600     1.5810     8.5440 hc         1 U8C       0.066700
     60 HBT          4.4380     2.6280     3.6630 h4         1 U8C       0.142000
     61 HBS          3.1160     2.6960     5.9650 ha         1 U8C       0.126000
     62 HBR          4.6590     2.1470     7.9950 ha         1 U8C       0.129000
     63 HB5          6.6120     3.5310     9.1510 h1         1 U8C       0.063700
     64 HBF          7.9350     3.2480    10.2980 h1         1 U8C       0.063700
     65 HB4          6.7870     5.2990    10.9250 hc         1 U8C       0.047200
     66 HBE          6.7940     5.8970     9.2720 hc         1 U8C       0.047200
     67 HB3          9.2600     5.5870    11.0830 hc         1 U8C       0.051700
     68 HBD          8.5130     7.1000    10.5710 hc         1 U8C       0.051700
     69 HB2         10.4740     6.6210     9.1000 hc         1 U8C       0.056200
     70 HB1          8.9890     6.5790     8.1760 hc         1 U8C       0.056200
     71 HA          10.3090     4.6990     7.5040 h1         1 U8C       0.105700
     72 HAK         13.1760     3.3110    10.5560 h1         1 U8C       0.070700
     73 HAL         11.9840     6.4550    12.3490 ha         1 U8C       0.117000
     74 HAP         15.3290     4.1420    10.8810 ha         1 U8C       0.106000
     75 HAO         16.8850     5.9100    11.6570 ha         1 U8C       0.099000
     76 HAN         16.0220     7.9400    12.7690 ha         1 U8C       0.142000
     77 HAX         14.8950     9.8930    13.0350 h1         1 U8C       0.035700
     78 HAY         13.5170    10.3810    14.0220 h1         1 U8C       0.035700
     79 HAI         11.3040     4.1640    12.8520 hc         1 U8C       0.052700
     80 HAJ         11.0280     2.7470    11.8580 hc         1 U8C       0.052700
     81 HAH         12.0930     2.1240    13.9880 hc         1 U8C       0.060200
     82 HAG         13.4330     3.2130    13.6910 hc         1 U8C       0.060200
     83 HAC         15.3810     2.3020    12.7100 ha         1 U8C       0.136000
     84 HAE         11.6170     0.3330    12.0100 ha         1 U8C       0.110000
     85 HAF         12.7410    -1.4410    10.7410 ha         1 U8C       0.110000
     86 HAR         15.4520    -3.3290     9.1190 h1         1 U8C       0.035367
     87 HAS         14.2100    -3.2890    10.3890 h1         1 U8C       0.035367
     88 HAT         14.0030    -2.3240     8.9010 h1         1 U8C       0.035367
     89 HAU         18.7470     1.3710    11.5730 h1         1 U8C       0.043700
     90 HAV         17.3990     2.5160    11.4220 h1         1 U8C       0.043700
     91 HAW         17.6400     1.6110    12.9410 h1         1 U8C       0.043700
@<TRIPOS>BOND
     1     1     2 1   
     2     1     6 1   
     3     1    48 1   
     4     1    49 1   
     5     2     3 1   
     6     2    50 1   
     7     2    51 1   
     8     3     4 1   
     9     3    52 1   
    10     3    53 1   
    11     4     5 1   
    12     4    54 1   
    13     4    55 1   
    14     5     6 1   
    15     5    56 1   
    16     5    57 1   
    17     6     7 1   
    18     6    58 1   
    19     7     8 1   
    20     7    13 1   
    21     7    59 1   
    22     8     9 1   
    23     8    12 2   
    24     9    10 1   
    25    10    11 2   
    26    10    60 1   
    27    11    12 1   
    28    11    61 1   
    29    12    62 1   
    30    13    14 2   
    31    13    15 1   
    32    15    16 1   
    33    15    20 1   
    34    16    17 1   
    35    16    63 1   
    36    16    64 1   
    37    17    18 1   
    38    17    65 1   
    39    17    66 1   
    40    18    19 1   
    41    18    67 1   
    42    18    68 1   
    43    19    20 1   
    44    19    69 1   
    45    19    70 1   
    46    20    21 1   
    47    20    71 1   
    48    21    22 2   
    49    21    23 1   
    50    23    24 1   
    51    24    25 1   
    52    24    36 1   
    53    24    72 1   
    54    25    26 ar  
    55    25    27 ar  
    56    26    30 ar  
    57    26    73 1   
    58    27    28 ar  
    59    27    74 1   
    60    28    29 ar  
    61    28    75 1   
    62    29    30 ar  
    63    29    76 1   
    64    30    31 1   
    65    31    32 1   
    66    32    33 1   
    67    32    77 1   
    68    32    78 1   
    69    33    34 1   
    70    33    35 1   
    71    36    37 1   
    72    36    79 1   
    73    36    80 1   
    74    37    38 1   
    75    37    81 1   
    76    37    82 1   
    77    38    39 ar  
    78    38    40 ar  
    79    39    45 ar  
    80    39    83 1   
    81    40    41 ar  
    82    40    84 1   
    83    41    42 ar  
    84    41    85 1   
    85    42    43 1   
    86    42    45 ar  
    87    43    44 1   
    88    44    86 1   
    89    44    87 1   
    90    44    88 1   
    91    45    46 1   
    92    46    47 1   
    93    47    89 1   
    94    47    90 1   
    95    47    91 1   
@<TRIPOS>SUBSTRUCTURE
     1 U8C         1 TEMP              0 ****  ****    0 ROOT
