@<TRIPOS>MOLECULE
U8C
   91    95     1     0     0
SMALL
abcg2


@<TRIPOS>ATOM
      1 CBM          5.9230     1.2650    10.0690 c6         1 U8C      -0.077900
      2 CBN          5.9970     0.1430    11.1060 c6         1 U8C      -0.071900
      3 CBO          7.1090     0.3850    12.1270 c6         1 U8C      -0.076400
      4 CBP          8.4540     0.6000    11.4320 c6         1 U8C      -0.071900
      5 CBQ          8.3720     1.7240    10.3990 c6         1 U8C      -0.077900
      6 CBK          7.2680     1.4730     9.3670 c6         1 U8C      -0.051700
      7 CBJ          7.1960     2.6280     8.3350 c3         1 U8C      -0.057400
      8 CBL          6.1050     2.4500     7.3190 cc         1 U8C      -0.192300
      9 SBU          6.0160     1.0900     6.2480 ss         1 U8C       0.248000
     10 CBT          4.5080     1.6150     5.6000 cc         1 U8C      -0.262000
     11 CBS          4.1000     2.7870     6.1690 cd         1 U8C      -0.136000
     12 CBR          5.0130     3.2580     7.1560 cd         1 U8C      -0.144000
     13 CBH          8.5530     2.7700     7.6400 c          1 U8C       0.617100
     14 OBI          8.9170     1.8790     6.8680 o          1 U8C      -0.622100
     15 N            9.3220     3.8610     7.8760 n          1 U8C      -0.392800
     16 CBF          9.0930     4.9140     8.8710 c6         1 U8C       0.100000
     17 CBE          9.1110     6.2930     8.2210 c6         1 U8C      -0.093400
     18 CBD         10.4160     6.5130     7.4570 c6         1 U8C      -0.078400
     19 CB          10.6530     5.3750     6.4650 c6         1 U8C      -0.072400
     20 CA          10.5770     4.0030     7.1390 c6         1 U8C       0.041700
     21 C           11.8000     3.7100     8.0110 c          1 U8C       0.584100
     22 O           12.8810     4.2260     7.8460 o          1 U8C      -0.490000
     23 OAJ         11.5410     2.7780     8.9280 os         1 U8C      -0.448100
     24 CAI         12.6030     2.4130     9.8670 c3         1 U8C       0.226600
     25 CAK         12.6580     3.4280    10.9810 ca         1 U8C      -0.096300
     26 CAL         11.5340     3.6690    11.7620 ca         1 U8C      -0.156000
     27 CAP         13.8390     4.1190    11.2430 ca         1 U8C      -0.154000
     28 CAO         13.8850     5.0320    12.2890 ca         1 U8C      -0.090000
     29 CAN         12.7640     5.2800    13.0750 ca         1 U8C      -0.161000
     30 CAM         11.5750     4.5970    12.8030 ca         1 U8C       0.185100
     31 OAU         10.4120     4.7740    13.4840 os         1 U8C      -0.345100
     32 CAV         10.3850     5.7000    14.5690 c3         1 U8C       0.008600
     33 CAW         11.0740     5.2270    15.8690 c          1 U8C       0.693000
     34 OAY         11.4170     4.0290    15.9620 o          1 U8C      -0.718000
     35 OAX         11.1880     6.1280    16.7380 o          1 U8C      -0.718000
     36 CAH         12.2690     0.9980    10.3190 c3         1 U8C      -0.068400
     37 CAG         13.2920     0.4150    11.3020 c3         1 U8C      -0.027100
     38 CAD         14.6960     0.3540    10.7510 ca         1 U8C      -0.070300
     39 CAC         15.7040     1.1530    11.3000 ca         1 U8C      -0.155000
     40 CAE         15.0130    -0.4630     9.6740 ca         1 U8C      -0.114000
     41 CAF         16.3040    -0.4810     9.1450 ca         1 U8C      -0.167000
     42 CAA         17.3010     0.3210     9.6840 ca         1 U8C       0.096100
     43 OAQ         18.5850     0.3770     9.2300 os         1 U8C      -0.332100
     44 CAR         18.9380    -0.4580     8.1310 c3         1 U8C       0.148900
     45 CAB         16.9930     1.1500    10.7830 ca         1 U8C       0.111100
     46 OAS         18.0150     1.9120    11.2630 os         1 U8C      -0.339100
     47 CAT         17.7360     2.7890    12.3540 c3         1 U8C       0.143900
     48 HBM          5.6370     2.2020    10.5630 hc         1 U8C       0.046700
     49 HB6          5.1460     1.0460     9.3350 hc         1 U8C       0.046700
     50 HB7          5.0320     0.0420    11.6120 hc         1 U8C       0.039200
     51 HBN          6.1820    -0.8070    10.5910 hc         1 U8C       0.039200
     52 HBO          6.8670     1.2760    12.7190 hc         1 U8C       0.043200
     53 HB8          7.1720    -0.4530    12.8260 hc         1 U8C       0.043200
     54 HB9          8.7560    -0.3260    10.9310 hc         1 U8C       0.039200
     55 HBP          9.2300     0.8290    12.1660 hc         1 U8C       0.039200
     56 HCA          9.3340     1.8410     9.8990 hc         1 U8C       0.046700
     57 HBQ          8.1680     2.6700    10.9140 hc         1 U8C       0.046700
     58 HBK          7.5150     0.5590     8.8160 hc         1 U8C       0.062700
     59 HBJ          6.9350     3.5330     8.8780 hc         1 U8C       0.066700
     60 HBT          4.0240     1.0440     4.8240 h4         1 U8C       0.142000
     61 HBS          3.1870     3.2980     5.8980 ha         1 U8C       0.126000
     62 HBR          4.8650     4.1570     7.7390 ha         1 U8C       0.129000
     63 HB5          8.1580     4.7450     9.3890 h1         1 U8C       0.063700
     64 HBF          9.8880     4.8470     9.6210 h1         1 U8C       0.063700
     65 HB4          8.9880     7.0480     9.0010 hc         1 U8C       0.047200
     66 HBE          8.2580     6.3790     7.5410 hc         1 U8C       0.047200
     67 HB3         11.2470     6.5570     8.1670 hc         1 U8C       0.051700
     68 HBD         10.3950     7.4680     6.9290 hc         1 U8C       0.051700
     69 HB2         11.6220     5.4760     5.9760 hc         1 U8C       0.056200
     70 HB1          9.8870     5.3980     5.6870 hc         1 U8C       0.056200
     71 HA          10.5820     3.2210     6.3790 h1         1 U8C       0.105700
     72 HAK         13.5460     2.4230     9.3240 h1         1 U8C       0.070700
     73 HAL         10.6050     3.1470    11.5740 ha         1 U8C       0.117000
     74 HAP         14.7150     3.9380    10.6350 ha         1 U8C       0.106000
     75 HAO         14.8050     5.5630    12.5000 ha         1 U8C       0.099000
     76 HAN         12.8270     5.9900    13.8850 ha         1 U8C       0.142000
     77 HAX         10.7980     6.6630    14.2630 h1         1 U8C       0.035700
     78 HAY          9.3260     5.8450    14.7880 h1         1 U8C       0.035700
     79 HAI         11.2840     0.9940    10.7870 hc         1 U8C       0.052700
     80 HAJ         12.2070     0.3670     9.4290 hc         1 U8C       0.052700
     81 HAH         12.9560    -0.5900    11.5710 hc         1 U8C       0.060200
     82 HAG         13.2880     1.0040    12.2210 hc         1 U8C       0.060200
     83 HAC         15.4620     1.7960    12.1330 ha         1 U8C       0.136000
     84 HAE         14.2540    -1.0950     9.2300 ha         1 U8C       0.110000
     85 HAF         16.5240    -1.1270     8.3070 ha         1 U8C       0.110000
     86 HAR         19.9900    -0.2620     7.9340 h1         1 U8C       0.035367
     87 HAS         18.8020    -1.5140     8.3780 h1         1 U8C       0.035367
     88 HAT         18.3480    -0.2140     7.2440 h1         1 U8C       0.035367
     89 HAU         18.6690     3.3040    12.5670 h1         1 U8C       0.043700
     90 HAV         16.9670     3.5170    12.0850 h1         1 U8C       0.043700
     91 HAW         17.4150     2.2310    13.2360 h1         1 U8C       0.043700
@<TRIPOS>BOND
     1     1     2 1   
     2     1     6 1   
     3     1    48 1   
     4     1    49 1   
     5     2     3 1   
     6     2    50 1   
     7     2    51 1   
     8     3     4 1   
     9     3    52 1   
    10     3    53 1   
    11     4     5 1   
    12     4    54 1   
    13     4    55 1   
    14     5     6 1   
    15     5    56 1   
    16     5    57 1   
    17     6     7 1   
    18     6    58 1   
    19     7     8 1   
    20     7    13 1   
    21     7    59 1   
    22     8     9 1   
    23     8    12 2   
    24     9    10 1   
    25    10    11 2   
    26    10    60 1   
    27    11    12 1   
    28    11    61 1   
    29    12    62 1   
    30    13    14 2   
    31    13    15 1   
    32    15    16 1   
    33    15    20 1   
    34    16    17 1   
    35    16    63 1   
    36    16    64 1   
    37    17    18 1   
    38    17    65 1   
    39    17    66 1   
    40    18    19 1   
    41    18    67 1   
    42    18    68 1   
    43    19    20 1   
    44    19    69 1   
    45    19    70 1   
    46    20    21 1   
    47    20    71 1   
    48    21    22 2   
    49    21    23 1   
    50    23    24 1   
    51    24    25 1   
    52    24    36 1   
    53    24    72 1   
    54    25    26 ar  
    55    25    27 ar  
    56    26    30 ar  
    57    26    73 1   
    58    27    28 ar  
    59    27    74 1   
    60    28    29 ar  
    61    28    75 1   
    62    29    30 ar  
    63    29    76 1   
    64    30    31 1   
    65    31    32 1   
    66    32    33 1   
    67    32    77 1   
    68    32    78 1   
    69    33    34 1   
    70    33    35 1   
    71    36    37 1   
    72    36    79 1   
    73    36    80 1   
    74    37    38 1   
    75    37    81 1   
    76    37    82 1   
    77    38    39 ar  
    78    38    40 ar  
    79    39    45 ar  
    80    39    83 1   
    81    40    41 ar  
    82    40    84 1   
    83    41    42 ar  
    84    41    85 1   
    85    42    43 1   
    86    42    45 ar  
    87    43    44 1   
    88    44    86 1   
    89    44    87 1   
    90    44    88 1   
    91    45    46 1   
    92    46    47 1   
    93    47    89 1   
    94    47    90 1   
    95    47    91 1   
@<TRIPOS>SUBSTRUCTURE
     1 U8C         1 TEMP              0 ****  ****    0 ROOT
