@<TRIPOS>MOLECULE
U8D
   55    57     1     0     0
SMALL
abcg2


@<TRIPOS>ATOM
      1 N1           3.3020     0.1570     0.6720 na         1 U8D      -0.094700
      2 C2           3.7960    -0.9910     0.0910 cc         1 U8D      -0.046300
      3 C3           2.7580    -1.7300    -0.4140 cd         1 U8D      -0.140400
      4 C4           1.5560    -1.0040    -0.1410 ca         1 U8D      -0.050800
      5 C5           0.2090    -1.2480    -0.4060 ca         1 U8D      -0.143000
      6 C6          -0.7370    -0.3120    -0.0090 ca         1 U8D       0.162100
      7 C7          -0.3410     0.8610     0.6590 ca         1 U8D      -0.165000
      8 C8           0.9960     1.1110     0.9310 ca         1 U8D      -0.100000
      9 C9           1.9360     0.1730     0.5320 ca         1 U8D      -0.089200
     10 C10          5.2460    -1.3320     0.1180 c3         1 U8D      -0.015200
     11 C11          2.8190    -3.0590    -1.0830 c3         1 U8D      -0.072200
     12 O12         -2.0260    -0.6020    -0.3050 os         1 U8D      -0.342100
     13 C13          4.0570     1.2360     1.2550 c3         1 U8D       0.129900
     14 C14          4.0640     4.8730    -1.0450 ca         1 U8D      -0.112000
     15 C15          4.1170     4.9160     0.3410 ca         1 U8D      -0.112500
     16 C16          4.0980     3.7370     1.0740 ca         1 U8D      -0.095500
     17 C17          4.0330     2.5030     0.4330 ca         1 U8D      -0.102300
     18 C18          3.9770     2.4670    -0.9560 ca         1 U8D      -0.095500
     19 C19          3.9930     3.6460    -1.6910 ca         1 U8D      -0.112500
     20 C20          5.6980    -1.9000     1.4640 c3         1 U8D      -0.091100
     21 C21          2.4120    -4.1910    -0.1510 c          1 U8D       0.609100
     22 O22          2.8560    -4.2830     0.9840 o          1 U8D      -0.616100
     23 N23          1.5550    -5.0790    -0.6760 nt         1 U8D      -0.610000
     24 C24         -3.0500     0.2750     0.1410 c3         1 U8D       0.145600
     25 C25         -4.3940    -0.2530    -0.3140 c3         1 U8D      -0.039400
     26 P26         -7.2120     0.0450    -0.4200 p5         1 U8D       1.300500
     27 O27         -7.3630    -1.3850     0.1190 o          1 U8D      -0.935833
     28 O28         -7.1300     0.1170    -1.9530 o          1 U8D      -0.935833
     29 O29         -8.2090     1.0420     0.1890 o          1 U8D      -0.935833
     30 C30         -5.5430     0.6160     0.1790 c3         1 U8D      -0.376400
     31 H5          -0.1090    -2.1520    -0.9120 ha         1 U8D       0.123000
     32 H7          -1.0730     1.5940     0.9710 ha         1 U8D       0.130000
     33 H8           1.2780     2.0250     1.4390 ha         1 U8D       0.103000
     34 H10          5.4350    -2.0730    -0.6610 hc         1 U8D       0.039200
     35 H10A         5.8540    -0.4640    -0.1510 hc         1 U8D       0.039200
     36 H11          2.2000    -3.0600    -1.9830 hc         1 U8D       0.050200
     37 H11A         3.8380    -3.2790    -1.4140 hc         1 U8D       0.050200
     38 H13          3.6810     1.4410     2.2610 h1         1 U8D       0.056200
     39 H13A         5.0870     0.9060     1.3860 h1         1 U8D       0.056200
     40 H14          4.0720     5.7900    -1.6210 ha         1 U8D       0.106000
     41 H15          4.1660     5.8670     0.8560 ha         1 U8D       0.108000
     42 H16          4.1290     3.7770     2.1570 ha         1 U8D       0.117500
     43 H18          3.9110     1.5190    -1.4760 ha         1 U8D       0.117500
     44 H19          3.9460     3.6030    -2.7710 ha         1 U8D       0.108000
     45 H20          5.1120    -2.7830     1.7160 hc         1 U8D       0.038033
     46 H20A         6.7500    -2.1840     1.4260 hc         1 U8D       0.038033
     47 H20B         5.5800    -1.1770     2.2710 hc         1 U8D       0.038033
     48 HN23         1.1880    -4.9790    -1.6060 hn         1 U8D       0.310500
     49 HN2A         1.2500    -5.8760    -0.1410 hn         1 U8D       0.310500
     50 H24         -3.0260     0.3570     1.2360 h1         1 U8D       0.013200
     51 H24A        -2.8930     1.2830    -0.2630 h1         1 U8D       0.013200
     52 H25         -4.4200    -0.2980    -1.4060 hc         1 U8D       0.055700
     53 H25A        -4.5340    -1.2750     0.0480 hc         1 U8D       0.055700
     54 H30         -5.5360     0.6380     1.2750 hc         1 U8D       0.001700
     55 H30A        -5.3810     1.6530    -0.1410 hc         1 U8D       0.001700
@<TRIPOS>BOND
     1     1     2 1   
     2     1     9 1   
     3     1    13 1   
     4     2     3 2   
     5     2    10 1   
     6     3     4 1   
     7     3    11 1   
     8     4     5 ar  
     9     4     9 ar  
    10     5     6 ar  
    11     5    31 1   
    12     6     7 ar  
    13     6    12 1   
    14     7     8 ar  
    15     7    32 1   
    16     8     9 ar  
    17     8    33 1   
    18    10    20 1   
    19    10    34 1   
    20    10    35 1   
    21    11    21 1   
    22    11    36 1   
    23    11    37 1   
    24    12    24 1   
    25    13    17 1   
    26    13    38 1   
    27    13    39 1   
    28    14    15 ar  
    29    14    19 ar  
    30    14    40 1   
    31    15    16 ar  
    32    15    41 1   
    33    16    17 ar  
    34    16    42 1   
    35    17    18 ar  
    36    18    19 ar  
    37    18    43 1   
    38    19    44 1   
    39    20    45 1   
    40    20    46 1   
    41    20    47 1   
    42    21    22 2   
    43    21    23 1   
    44    23    48 1   
    45    23    49 1   
    46    24    25 1   
    47    24    50 1   
    48    24    51 1   
    49    25    30 1   
    50    25    52 1   
    51    25    53 1   
    52    26    27 1   
    53    26    28 1   
    54    26    29 1   
    55    26    30 1   
    56    30    54 1   
    57    30    55 1   
@<TRIPOS>SUBSTRUCTURE
     1 U8D         1 TEMP              0 ****  ****    0 ROOT
