@<TRIPOS>MOLECULE
U8D
   55    57     1     0     0
SMALL
No Charge or Current Charge


@<TRIPOS>ATOM
      1 N1           3.2970     0.1620     0.6880 na         1 U8D      -0.094700
      2 C2           3.8370    -0.9920     0.0780 cc         1 U8D      -0.046300
      3 C3           2.7310    -1.6890    -0.4120 cd         1 U8D      -0.140400
      4 C4           1.5240    -0.9540    -0.0990 ca         1 U8D      -0.050800
      5 C5           0.1770    -1.2240    -0.3760 ca         1 U8D      -0.143000
      6 C6          -0.7910    -0.2950     0.0590 ca         1 U8D       0.162100
      7 C7          -0.3860     0.8780     0.7550 ca         1 U8D      -0.165000
      8 C8           0.9800     1.1190     1.0150 ca         1 U8D      -0.100000
      9 C9           1.9150     0.1700     0.5710 ca         1 U8D      -0.089200
     10 C10          5.3110    -1.3200     0.0020 c3         1 U8D      -0.015200
     11 C11          2.7560    -3.0080    -1.1570 c3         1 U8D      -0.072200
     12 O12         -2.1150    -0.5720    -0.2200 os         1 U8D      -0.342100
     13 C13          4.0270     1.2710     1.3370 c3         1 U8D       0.129900
     14 C14          4.3970     4.8910    -1.0510 ca         1 U8D      -0.112000
     15 C15          4.2470     4.9720     0.3430 ca         1 U8D      -0.112500
     16 C16          4.1280     3.7980     1.1070 ca         1 U8D      -0.095500
     17 C17          4.1540     2.5340     0.4840 ca         1 U8D      -0.102300
     18 C18          4.3110     2.4620    -0.9170 ca         1 U8D      -0.095500
     19 C19          4.4300     3.6360    -1.6800 ca         1 U8D      -0.112500
     20 C20          5.8470    -1.9720     1.2900 c3         1 U8D      -0.091100
     21 C21          2.5060    -4.2240    -0.2510 c          1 U8D       0.609100
     22 O22          3.3400    -4.6810     0.5130 o          1 U8D      -0.616100
     23 N23          1.2850    -4.7980    -0.3360 nt         1 U8D      -0.610000
     24 C24         -3.1800     0.3080     0.1760 c3         1 U8D       0.145600
     25 C25         -4.5090    -0.3140    -0.2980 c3         1 U8D      -0.039400
     26 P26         -7.3540    -0.1850    -0.4890 p5         1 U8D       1.300500
     27 O27         -7.5280    -1.5180     0.1550 o          1 U8D      -0.935833
     28 O28         -7.3300    -0.3210    -1.9740 o          1 U8D      -0.935833
     29 O29         -8.4500     0.7360    -0.0730 o          1 U8D      -0.935833
     30 C30         -5.7490     0.5390     0.0670 c3         1 U8D      -0.376400
     31 H5          -0.1210    -2.1190    -0.9120 ha         1 U8D       0.123000
     32 H7          -1.1150     1.6070     1.0950 ha         1 U8D       0.130000
     33 H8           1.2910     2.0180     1.5430 ha         1 U8D       0.103000
     34 H10          5.5110    -1.9880    -0.8420 hc         1 U8D       0.039200
     35 H10A         5.8840    -0.4070    -0.1990 hc         1 U8D       0.039200
     36 H11          1.9860    -2.9760    -1.9370 hc         1 U8D       0.050200
     37 H11A         3.7280    -3.1410    -1.6440 hc         1 U8D       0.050200
     38 H13          3.5160     1.5130     2.2770 h1         1 U8D       0.056200
     39 H13A         5.0330     0.9270     1.6030 h1         1 U8D       0.056200
     40 H14          4.4900     5.8000    -1.6430 ha         1 U8D       0.106000
     41 H15          4.2240     5.9430     0.8320 ha         1 U8D       0.108000
     42 H16          4.0140     3.8730     2.1870 ha         1 U8D       0.117500
     43 H18          4.3410     1.4980    -1.4200 ha         1 U8D       0.117500
     44 H19          4.5480     3.5720    -2.7600 ha         1 U8D       0.108000
     45 H20          5.3250    -2.9140     1.4920 hc         1 U8D       0.038033
     46 H20A         6.9180    -2.1870     1.1930 hc         1 U8D       0.038033
     47 H20B         5.7070    -1.3090     2.1520 hc         1 U8D       0.038033
     48 HN23         0.5930    -4.4270    -0.9700 hn         1 U8D       0.310500
     49 HN2A         1.0760    -5.5990     0.2410 hn         1 U8D       0.310500
     50 H24         -3.1980     0.4250     1.2680 h1         1 U8D       0.013200
     51 H24A        -3.0540     1.2970    -0.2830 h1         1 U8D       0.013200
     52 H25         -4.4700    -0.4500    -1.3850 hc         1 U8D       0.055700
     53 H25A        -4.6120    -1.3120     0.1470 hc         1 U8D       0.055700
     54 H30         -5.7950     0.6730     1.1550 hc         1 U8D       0.001700
     55 H30A        -5.6520     1.5360    -0.3790 hc         1 U8D       0.001700
@<TRIPOS>BOND
     1     1     2 1   
     2     1     9 1   
     3     1    13 1   
     4     2     3 2   
     5     2    10 1   
     6     3     4 1   
     7     3    11 1   
     8     4     5 ar  
     9     4     9 ar  
    10     5     6 ar  
    11     5    31 1   
    12     6     7 ar  
    13     6    12 1   
    14     7     8 ar  
    15     7    32 1   
    16     8     9 ar  
    17     8    33 1   
    18    10    20 1   
    19    10    34 1   
    20    10    35 1   
    21    11    21 1   
    22    11    36 1   
    23    11    37 1   
    24    12    24 1   
    25    13    17 1   
    26    13    38 1   
    27    13    39 1   
    28    14    15 ar  
    29    14    19 ar  
    30    14    40 1   
    31    15    16 ar  
    32    15    41 1   
    33    16    17 ar  
    34    16    42 1   
    35    17    18 ar  
    36    18    19 ar  
    37    18    43 1   
    38    19    44 1   
    39    20    45 1   
    40    20    46 1   
    41    20    47 1   
    42    21    22 2   
    43    21    23 1   
    44    23    48 1   
    45    23    49 1   
    46    24    25 1   
    47    24    50 1   
    48    24    51 1   
    49    25    30 1   
    50    25    52 1   
    51    25    53 1   
    52    26    27 1   
    53    26    28 1   
    54    26    29 1   
    55    26    30 1   
    56    30    54 1   
    57    30    55 1   
@<TRIPOS>SUBSTRUCTURE
     1 U8D         1 TEMP              0 ****  ****    0 ROOT
