@<TRIPOS>MOLECULE
U8E
   50    54     1     0     0
SMALL
No Charge or Current Charge


@<TRIPOS>ATOM
      1 C1          34.7050    40.1290     7.7380 ca         1 U8E       0.148100
      2 C2          35.7630    41.0620     7.7670 ca         1 U8E      -0.177500
      3 C3          36.4670    41.2910     8.9640 ca         1 U8E      -0.048000
      4 C7          36.8560    40.8300    11.3870 cc         1 U8E      -0.110400
      5 C8          38.2310    40.6620    11.2940 cd         1 U8E      -0.184800
      6 C9          38.9940    40.8630    12.4820 cd         1 U8E       0.240800
      7 C10         39.4110    41.2980    14.6490 cc         1 U8E      -0.152300
      8 C11         39.4250    41.5860    16.0990 cx         1 U8E      -0.073400
      9 C12         38.8440    40.5820    17.0680 cx         1 U8E      -0.117900
     10 C13         40.3360    40.7820    17.0010 cx         1 U8E      -0.117900
     11 C14         38.4060    41.2200    13.7080 cd         1 U8E      -0.018400
     12 C15         36.1680    41.2200    12.6590 c          1 U8E       0.572200
     13 C16         36.5530    41.8320    15.0590 ca         1 U8E       0.050600
     14 C19         35.5680    42.6760    17.5710 ca         1 U8E       0.095100
     15 C20         35.2090    44.3160    19.4260 c3         1 U8E       0.388300
     16 C21         35.3620    41.3570    17.1310 ca         1 U8E      -0.109500
     17 C22         35.8450    40.9360    15.8800 ca         1 U8E      -0.084500
     18 F1          36.5120    44.6550    19.5720 f          1 U8E      -0.136500
     19 F           34.6250    45.2770    18.6730 f          1 U8E      -0.136500
     20 O2          35.0700    43.0130    18.8180 os         1 U8E      -0.392100
     21 C18         36.2580    43.5840    16.7330 ca         1 U8E      -0.109500
     22 C17         36.7370    43.1620    15.4800 ca         1 U8E      -0.084500
     23 N2          37.0170    41.4110    13.7740 n          1 U8E      -0.193200
     24 N1          40.5490    41.0050    13.8800 na         1 U8E       0.032800
     25 N           40.2970    40.7270    12.5430 nc         1 U8E      -0.480800
     26 O1          34.9550    41.3810    12.7440 o          1 U8E      -0.530000
     27 C4          36.1250    40.5930    10.1400 ca         1 U8E      -0.083800
     28 C5          35.0660    39.6660    10.1040 ca         1 U8E      -0.048000
     29 C6          34.3630    39.4370     8.9090 ca         1 U8E      -0.177500
     30 O           33.9790    39.8630     6.5950 os         1 U8E      -0.340100
     31 C           34.2490    40.5190     5.3440 c3         1 U8E       0.148900
     32 H1          36.0520    41.6180     6.8800 ha         1 U8E       0.122500
     33 H2          37.2770    42.0180     8.9770 ha         1 U8E       0.118000
     34 H3          38.7200    40.3740    10.3690 ha         1 U8E       0.205000
     35 H4          39.3260    42.6440    16.3350 hc         1 U8E       0.097700
     36 H5          38.3160    40.9670    17.9370 hc         1 U8E       0.078200
     37 H6          38.4390    39.6590    16.6620 hc         1 U8E       0.078200
     38 H7          40.9270    39.9800    16.5670 hc         1 U8E       0.078200
     39 H8          40.8140    41.3010    17.8290 hc         1 U8E       0.078200
     40 H9          34.7390    44.3210    20.4150 h3         1 U8E       0.105700
     41 H10         34.8250    40.6570    17.7660 ha         1 U8E       0.134000
     42 H11         35.6780    39.9140    15.5500 ha         1 U8E       0.130500
     43 H12         36.4310    44.6140    17.0300 ha         1 U8E       0.134000
     44 H13         37.2630    43.8640    14.8370 ha         1 U8E       0.130500
     45 H14         41.5020    40.9790    14.2370 hn         1 U8E       0.377000
     46 H15         34.7910    39.1180    11.0030 ha         1 U8E       0.118000
     47 H16         33.5490    38.7170     8.8910 ha         1 U8E       0.122500
     48 H17         33.5590    40.1610     4.5700 h1         1 U8E       0.040367
     49 H18         34.1220    41.6050     5.4370 h1         1 U8E       0.040367
     50 H19         35.2730    40.3110     5.0080 h1         1 U8E       0.040367
@<TRIPOS>BOND
     1     1     2 ar  
     2     1    29 ar  
     3     1    30 1   
     4     2     3 ar  
     5     2    32 1   
     6     3    27 ar  
     7     3    33 1   
     8     4     5 2   
     9     4    12 1   
    10     4    27 1   
    11     5     6 1   
    12     5    34 1   
    13     6    11 1   
    14     6    25 2   
    15     7     8 1   
    16     7    11 2   
    17     7    24 1   
    18     8     9 1   
    19     8    10 1   
    20     8    35 1   
    21     9    10 1   
    22     9    36 1   
    23     9    37 1   
    24    10    38 1   
    25    10    39 1   
    26    11    23 1   
    27    12    23 1   
    28    12    26 2   
    29    13    17 ar  
    30    13    22 ar  
    31    13    23 1   
    32    14    16 ar  
    33    14    20 1   
    34    14    21 ar  
    35    15    18 1   
    36    15    19 1   
    37    15    20 1   
    38    15    40 1   
    39    16    17 ar  
    40    16    41 1   
    41    17    42 1   
    42    21    22 ar  
    43    21    43 1   
    44    22    44 1   
    45    24    25 1   
    46    24    45 1   
    47    27    28 ar  
    48    28    29 ar  
    49    28    46 1   
    50    29    47 1   
    51    30    31 1   
    52    31    48 1   
    53    31    49 1   
    54    31    50 1   
@<TRIPOS>SUBSTRUCTURE
     1 U8E         1 TEMP              0 ****  ****    0 ROOT
