@<TRIPOS>MOLECULE
U8E
   50    54     1     0     0
SMALL
abcg2


@<TRIPOS>ATOM
      1 C1          34.6680    40.1690     7.7770 ca         1 U8E       0.148100
      2 C2          35.8380    40.9220     7.7650 ca         1 U8E      -0.177500
      3 C3          36.5350    41.1280     8.9500 ca         1 U8E      -0.048000
      4 C7          36.9090    40.7910    11.3800 cc         1 U8E      -0.110400
      5 C8          38.2450    40.5720    11.3560 cd         1 U8E      -0.184800
      6 C9          39.0080    40.8100    12.5300 cd         1 U8E       0.240800
      7 C10         39.3750    41.3830    14.6450 cc         1 U8E      -0.152300
      8 C11         39.4060    41.8510    16.0420 cx         1 U8E      -0.073400
      9 C12         38.8770    40.9940    17.1540 cx         1 U8E      -0.117900
     10 C13         40.3470    41.2200    17.0300 cx         1 U8E      -0.117900
     11 C14         38.3730    41.2490    13.7010 cd         1 U8E      -0.018400
     12 C15         36.2260    41.2630    12.6040 c          1 U8E       0.572200
     13 C16         36.3960    41.9020    14.9300 ca         1 U8E       0.050600
     14 C19         35.3350    42.7540    17.3300 ca         1 U8E       0.095100
     15 C20         35.5520    43.6010    19.5210 c3         1 U8E       0.388300
     16 C21         35.3270    41.4030    17.0170 ca         1 U8E      -0.109500
     17 C22         35.8550    40.9780    15.8090 ca         1 U8E      -0.084500
     18 F1          36.6330    42.8090    19.7030 f          1 U8E      -0.136500
     19 F           36.0460    44.8290    19.2300 f          1 U8E      -0.136500
     20 O2          34.7590    43.1340    18.5270 os         1 U8E      -0.392100
     21 C18         35.8470    43.6880    16.4410 ca         1 U8E      -0.109500
     22 C17         36.3810    43.2530    15.2370 ca         1 U8E      -0.084500
     23 N2          37.0100    41.4570    13.7240 n          1 U8E      -0.193200
     24 N1          40.4960    41.0240    13.9730 na         1 U8E       0.032800
     25 N           40.3170    40.6710    12.7170 nc         1 U8E      -0.480800
     26 O1          35.0260    41.4890    12.6510 o          1 U8E      -0.530000
     27 C4          36.0990    40.6020    10.1610 ca         1 U8E      -0.083800
     28 C5          34.9170    39.8550    10.1560 ca         1 U8E      -0.048000
     29 C6          34.2150    39.6370     8.9880 ca         1 U8E      -0.177500
     30 O           33.9210    39.9060     6.6900 os         1 U8E      -0.340100
     31 C           34.3530    40.4000     5.4390 c3         1 U8E       0.148900
     32 H1          36.2220    41.3610     6.8540 ha         1 U8E       0.122500
     33 H2          37.4370    41.7280     8.9200 ha         1 U8E       0.118000
     34 H3          38.7330    40.2130    10.4570 ha         1 U8E       0.205000
     35 H4          39.2460    42.9170    16.1600 hc         1 U8E       0.097700
     36 H5          38.3370    41.4940    17.9460 hc         1 U8E       0.078200
     37 H6          38.4910    40.0180    16.8930 hc         1 U8E       0.078200
     38 H7          40.9570    40.3870    16.7030 hc         1 U8E       0.078200
     39 H8          40.8360    41.8760    17.7380 hc         1 U8E       0.078200
     40 H9          34.9680    43.6540    20.4380 h3         1 U8E       0.105700
     41 H10         34.9150    40.6870    17.7160 ha         1 U8E       0.134000
     42 H11         35.8680    39.9240    15.5630 ha         1 U8E       0.130500
     43 H12         35.8190    44.7450    16.6620 ha         1 U8E       0.134000
     44 H13         36.7930    43.9710    14.5390 ha         1 U8E       0.130500
     45 H14         41.4280    41.0130    14.3610 hn         1 U8E       0.377000
     46 H15         34.5480    39.4150    11.0720 ha         1 U8E       0.118000
     47 H16         33.3080    39.0450     9.0010 ha         1 U8E       0.122500
     48 H17         33.6250    40.0620     4.7050 h1         1 U8E       0.040367
     49 H18         34.3890    41.4920     5.4200 h1         1 U8E       0.040367
     50 H19         35.3370    40.0110     5.1630 h1         1 U8E       0.040367
@<TRIPOS>BOND
     1     1     2 ar  
     2     1    29 ar  
     3     1    30 1   
     4     2     3 ar  
     5     2    32 1   
     6     3    27 ar  
     7     3    33 1   
     8     4     5 2   
     9     4    12 1   
    10     4    27 1   
    11     5     6 1   
    12     5    34 1   
    13     6    11 1   
    14     6    25 2   
    15     7     8 1   
    16     7    11 2   
    17     7    24 1   
    18     8     9 1   
    19     8    10 1   
    20     8    35 1   
    21     9    10 1   
    22     9    36 1   
    23     9    37 1   
    24    10    38 1   
    25    10    39 1   
    26    11    23 1   
    27    12    23 1   
    28    12    26 2   
    29    13    17 ar  
    30    13    22 ar  
    31    13    23 1   
    32    14    16 ar  
    33    14    20 1   
    34    14    21 ar  
    35    15    18 1   
    36    15    19 1   
    37    15    20 1   
    38    15    40 1   
    39    16    17 ar  
    40    16    41 1   
    41    17    42 1   
    42    21    22 ar  
    43    21    43 1   
    44    22    44 1   
    45    24    25 1   
    46    24    45 1   
    47    27    28 ar  
    48    28    29 ar  
    49    28    46 1   
    50    29    47 1   
    51    30    31 1   
    52    31    48 1   
    53    31    49 1   
    54    31    50 1   
@<TRIPOS>SUBSTRUCTURE
     1 U8E         1 TEMP              0 ****  ****    0 ROOT
