@<TRIPOS>MOLECULE
U8H
   28    29     1     0     0
SMALL
abcg2


@<TRIPOS>ATOM
      1 C01          3.3900     6.3360    18.1330 cc         1 U8H       0.354300
      2 C02          2.6050     6.7110    19.3500 c3         1 U8H      -0.043400
      3 C05          3.4500     6.7720    20.6080 ca         1 U8H      -0.120300
      4 C10          4.7130     7.3550    20.6090 ca         1 U8H      -0.062000
      5 C11          4.8940     5.7660    15.8710 cs         1 U8H       0.395400
      6 C13          5.4790     7.4340    21.7700 ca         1 U8H      -0.164000
      7 C15          4.9730     6.9240    22.9640 ca         1 U8H       0.142100
      8 C17          6.9360     7.5300    24.1890 c3         1 U8H       0.147900
      9 C03          3.8800     4.9700    17.9410 cs         1 U8H       0.222100
     10 N04          3.6320     7.2670    17.2660 nd         1 U8H      -0.412300
     11 N06          4.6210     4.8030    16.8020 ns         1 U8H      -0.328500
     12 S07          3.5860     3.7080    18.9640 s          1 U8H      -0.390400
     13 N08          4.3570     6.9710    16.1750 ns         1 U8H      -0.296400
     14 C09          2.9600     6.2630    21.8120 ca         1 U8H      -0.062000
     15 C12          3.7040     6.3370    22.9770 ca         1 U8H      -0.164000
     16 S14          5.7920     5.4830    14.4990 s          1 U8H      -0.514400
     17 O16          5.6330     6.9500    24.1550 os         1 U8H      -0.348100
     18 H18          2.1440     7.6800    19.1540 hc         1 U8H       0.079700
     19 H19          1.8050     5.9840    19.4950 hc         1 U8H       0.079700
     20 H23          5.1230     7.7590    19.6910 ha         1 U8H       0.113500
     21 H25          6.4570     7.8910    21.7280 ha         1 U8H       0.124500
     22 H28          7.2720     7.4470    25.2200 h1         1 U8H       0.042700
     23 H26          7.6240     6.9900    23.5340 h1         1 U8H       0.042700
     24 H27          6.9060     8.5820    23.8970 h1         1 U8H       0.042700
     25 H20          4.9940     3.8790    16.6160 hn         1 U8H       0.377500
     26 H21          4.5100     7.7400    15.5380 hn         1 U8H       0.506000
     27 H22          1.9840     5.7940    21.8340 ha         1 U8H       0.113500
     28 H24          3.3190     5.9400    23.9080 ha         1 U8H       0.124500
@<TRIPOS>BOND
     1     1     2 1   
     2     1     9 1   
     3     1    10 2   
     4     2     3 1   
     5     2    18 1   
     6     2    19 1   
     7     3     4 ar  
     8     3    14 ar  
     9     4     6 ar  
    10     4    20 1   
    11     5    11 1   
    12     5    13 1   
    13     5    16 2   
    14     6     7 ar  
    15     6    21 1   
    16     7    15 ar  
    17     7    17 1   
    18     8    17 1   
    19     8    22 1   
    20     8    23 1   
    21     8    24 1   
    22     9    11 1   
    23     9    12 2   
    24    10    13 1   
    25    11    25 1   
    26    13    26 1   
    27    14    15 ar  
    28    14    27 1   
    29    15    28 1   
@<TRIPOS>SUBSTRUCTURE
     1 U8H         1 TEMP              0 ****  ****    0 ROOT
