@<TRIPOS>MOLECULE
U8H
   28    29     1     0     0
SMALL
No Charge or Current Charge


@<TRIPOS>ATOM
      1 C01          3.4150     6.4290    18.0960 cc         1 U8H       0.354300
      2 C02          2.6580     6.8850    19.3230 c3         1 U8H      -0.043400
      3 C05          3.5000     6.8650    20.5970 ca         1 U8H      -0.120300
      4 C10          4.5960     7.7390    20.7300 ca         1 U8H      -0.062000
      5 C11          4.8240     5.5200    15.8440 cs         1 U8H       0.395400
      6 C13          5.3790     7.7270    21.8990 ca         1 U8H      -0.164000
      7 C15          5.0670     6.8370    22.9490 ca         1 U8H       0.142100
      8 C17          6.9380     7.6250    24.3530 c3         1 U8H       0.147900
      9 C03          3.5780     4.9880    17.8790 cs         1 U8H       0.222100
     10 N04          3.9240     7.3200    17.2370 nd         1 U8H      -0.412300
     11 N06          4.2850     4.6500    16.7470 ns         1 U8H      -0.328500
     12 S07          2.9930     3.7530    18.8530 s          1 U8H      -0.390400
     13 N08          4.6140     6.8470    16.1350 ns         1 U8H      -0.296400
     14 C09          3.1900     5.9810    21.6490 ca         1 U8H      -0.062000
     15 C12          3.9720     5.9690    22.8160 ca         1 U8H      -0.164000
     16 S14          5.6660     5.0090    14.4990 s          1 U8H      -0.514400
     17 O16          5.7980     6.7790    24.1190 os         1 U8H      -0.348100
     18 H18          2.2900     7.9040    19.1550 hc         1 U8H       0.079700
     19 H19          1.7530     6.2790    19.4440 hc         1 U8H       0.079700
     20 H23          4.8450     8.4290    19.9270 ha         1 U8H       0.113500
     21 H25          6.2180     8.4120    21.9690 ha         1 U8H       0.124500
     22 H28          7.3700     7.4160    25.3400 h1         1 U8H       0.042700
     23 H26          7.7160     7.4510    23.5990 h1         1 U8H       0.042700
     24 H27          6.6510     8.6840    24.3260 h1         1 U8H       0.042700
     25 H20          4.4200     3.6640    16.5600 hn         1 U8H       0.377500
     26 H21          5.0090     7.5180    15.4700 hn         1 U8H       0.506000
     27 H22          2.3450     5.3010    21.5630 ha         1 U8H       0.113500
     28 H24          3.7280     5.2830    23.6230 ha         1 U8H       0.124500
@<TRIPOS>BOND
     1     1     2 1   
     2     1     9 1   
     3     1    10 2   
     4     2     3 1   
     5     2    18 1   
     6     2    19 1   
     7     3     4 ar  
     8     3    14 ar  
     9     4     6 ar  
    10     4    20 1   
    11     5    11 1   
    12     5    13 1   
    13     5    16 2   
    14     6     7 ar  
    15     6    21 1   
    16     7    15 ar  
    17     7    17 1   
    18     8    17 1   
    19     8    22 1   
    20     8    23 1   
    21     8    24 1   
    22     9    11 1   
    23     9    12 2   
    24    10    13 1   
    25    11    25 1   
    26    13    26 1   
    27    14    15 ar  
    28    14    27 1   
    29    15    28 1   
@<TRIPOS>SUBSTRUCTURE
     1 U8H         1 TEMP              0 ****  ****    0 ROOT
