@<TRIPOS>MOLECULE
U8I
   45    47     1     0     0
SMALL
abcg2


@<TRIPOS>ATOM
      1 C4           1.2410     4.4440    55.8770 ca         1 U8I       0.389900
      2 C14         -5.4430     7.6580    61.5730 ca         1 U8I      -0.123000
      3 C5           1.3180     4.3160    58.1540 ca         1 U8I       0.406900
      4 C6           0.5940     5.5270    58.2600 ca         1 U8I      -0.283300
      5 C11         -3.7300     5.2440    61.0380 ca         1 U8I      -0.111000
      6 C7           0.2360     6.1400    59.5930 c3         1 U8I       0.047200
      7 C8          -1.1590     5.8090    60.0900 ca         1 U8I      -0.093300
      8 C9          -1.6790     4.5170    59.9940 ca         1 U8I      -0.122000
      9 C10         -2.9560     4.2410    60.4690 ca         1 U8I      -0.116000
     10 C12         -3.2350     6.5480    61.1400 cp         1 U8I       0.011000
     11 C13         -4.0520     7.6300    61.7340 cp         1 U8I      -0.090000
     12 N1           0.5350     5.5800    55.8610 nb         1 U8I      -0.281000
     13 N2           1.5410     3.8790    54.6680 nv         1 U8I      -1.053900
     14 C3           0.2200     6.1100    57.0560 ca         1 U8I       0.195300
     15 N3           1.6470     3.7880    56.9680 nb         1 U8I      -0.330000
     16 C1           0.4100     8.6150    56.9080 c3         1 U8I      -0.083100
     17 C15         -6.2060     8.6740    62.1310 ca         1 U8I      -0.094500
     18 C16         -5.6130     9.7010    62.8670 ca         1 U8I      -0.112600
     19 C17         -6.4540    10.8180    63.4800 c          1 U8I       0.703600
     20 C18         -4.2270     9.6760    63.0270 ca         1 U8I      -0.094500
     21 C19         -3.4590     8.6610    62.4740 ca         1 U8I      -0.123000
     22 C2          -0.5370     7.4110    57.0020 c3         1 U8I      -0.139700
     23 C20         -1.9460     6.8060    60.6590 ca         1 U8I      -0.113000
     24 N4           1.6910     3.5960    59.2450 nv         1 U8I      -1.074900
     25 O1          -5.8380    11.7270    64.0930 o          1 U8I      -0.720500
     26 O2          -7.7010    10.7440    63.3240 o          1 U8I      -0.720500
     27 H1          -5.9290     6.8870    60.9890 ha         1 U8I       0.088000
     28 H2          -4.7160     5.0100    61.4170 ha         1 U8I       0.116000
     29 H3           0.9620     5.8350    60.3520 hc         1 U8I       0.041200
     30 H4           0.3340     7.2230    59.5380 hc         1 U8I       0.041200
     31 H5          -1.0890     3.7280    59.5470 ha         1 U8I       0.109000
     32 H6          -3.3490     3.2340    60.3990 ha         1 U8I       0.102000
     33 H7           1.4830     4.4810    53.8620 hn         1 U8I       0.478000
     34 H8           2.2760     3.1910    54.6570 hn         1 U8I       0.478000
     35 H9          -0.1570     9.5450    56.8400 hc         1 U8I       0.034700
     36 H10          1.0580     8.6750    57.7860 hc         1 U8I       0.034700
     37 H11          1.0460     8.5360    56.0250 hc         1 U8I       0.034700
     38 H12         -7.2790     8.6860    61.9930 ha         1 U8I       0.129500
     39 H13         -3.7550    10.4620    63.6010 ha         1 U8I       0.129500
     40 H14         -2.3890     8.6570    62.6330 ha         1 U8I       0.088000
     41 H15         -1.1790     7.3880    56.1200 hc         1 U8I       0.068200
     42 H16         -1.1820     7.5160    57.8730 hc         1 U8I       0.068200
     43 H17         -1.5540     7.8150    60.7050 ha         1 U8I       0.112000
     44 H18          2.3540     2.8510    59.1010 hn         1 U8I       0.486000
     45 H19          1.6660     4.0070    60.1620 hn         1 U8I       0.486000
@<TRIPOS>BOND
     1     1    12 ar  
     2     1    13 1   
     3     1    15 ar  
     4     2    11 ar  
     5     2    17 ar  
     6     2    27 1   
     7     3     4 ar  
     8     3    15 ar  
     9     3    24 1   
    10     4     6 1   
    11     4    14 ar  
    12     5     9 ar  
    13     5    10 ar  
    14     5    28 1   
    15     6     7 1   
    16     6    29 1   
    17     6    30 1   
    18     7     8 ar  
    19     7    23 ar  
    20     8     9 ar  
    21     8    31 1   
    22     9    32 1   
    23    10    11 1   
    24    10    23 ar  
    25    11    21 ar  
    26    12    14 ar  
    27    13    33 1   
    28    13    34 1   
    29    14    22 1   
    30    16    22 1   
    31    16    35 1   
    32    16    36 1   
    33    16    37 1   
    34    17    18 ar  
    35    17    38 1   
    36    18    19 1   
    37    18    20 ar  
    38    19    25 1   
    39    19    26 1   
    40    20    21 ar  
    41    20    39 1   
    42    21    40 1   
    43    22    41 1   
    44    22    42 1   
    45    23    43 1   
    46    24    44 1   
    47    24    45 1   
@<TRIPOS>SUBSTRUCTURE
     1 U8I         1 TEMP              0 ****  ****    0 ROOT
