@<TRIPOS>MOLECULE
U8I
   45    47     1     0     0
SMALL
No Charge or Current Charge


@<TRIPOS>ATOM
      1 C4           1.1250     4.4850    55.8480 ca         1 U8I       0.389900
      2 C14         -5.4260     7.6850    61.4700 ca         1 U8I      -0.123000
      3 C5           1.3700     4.2700    58.0840 ca         1 U8I       0.406900
      4 C6           0.6420     5.4580    58.2990 ca         1 U8I      -0.283300
      5 C11         -3.6900     5.2090    61.0560 ca         1 U8I      -0.111000
      6 C7           0.3630     6.0090    59.7070 c3         1 U8I       0.047200
      7 C8          -1.0610     5.7220    60.1820 ca         1 U8I      -0.093300
      8 C9          -1.5910     4.4200    60.1140 ca         1 U8I      -0.122000
      9 C10         -2.9010     4.1650    60.5480 ca         1 U8I      -0.116000
     10 C12         -3.1860     6.5300    61.1450 cp         1 U8I       0.011000
     11 C13         -4.0270     7.6460    61.6880 cp         1 U8I      -0.090000
     12 N1           0.4230     5.6210    55.9040 nb         1 U8I      -0.281000
     13 N2           1.3740     3.9950    54.6120 nv         1 U8I      -1.053900
     14 C3           0.1740     6.1170    57.1330 ca         1 U8I       0.195300
     15 N3           1.6160     3.7790    56.8660 nb         1 U8I      -0.330000
     16 C1           0.2800     8.6710    57.1190 c3         1 U8I      -0.083100
     17 C15         -6.2160     8.7300    61.9780 ca         1 U8I      -0.094500
     18 C16         -5.6360     9.7790    62.7270 ca         1 U8I      -0.112600
     19 C17         -6.4900    10.9120    63.2790 c          1 U8I       0.703600
     20 C18         -4.2400     9.7470    62.9500 ca         1 U8I      -0.094500
     21 C19         -3.4530     8.7010    62.4390 ca         1 U8I      -0.123000
     22 C2          -0.6230     7.4210    57.1550 c3         1 U8I      -0.139700
     23 C20         -1.8590     6.7620    60.7010 ca         1 U8I      -0.113000
     24 N4           1.8890     3.5190    59.0880 nv         1 U8I      -1.074900
     25 O1          -5.9450    11.7990    63.9210 o          1 U8I      -0.720500
     26 O2          -7.6940    10.8970    63.0630 o          1 U8I      -0.720500
     27 H1          -5.9060     6.9030    60.8870 ha         1 U8I       0.088000
     28 H2          -4.6980     4.9880    61.3980 ha         1 U8I       0.116000
     29 H3           1.0690     5.6060    60.4420 hc         1 U8I       0.041200
     30 H4           0.5540     7.0880    59.7200 hc         1 U8I       0.041200
     31 H5          -0.9890     3.6030    59.7230 ha         1 U8I       0.109000
     32 H6          -3.3040     3.1560    60.4930 ha         1 U8I       0.102000
     33 H7           1.2160     4.6000    53.8110 hn         1 U8I       0.478000
     34 H8           2.0770     3.2670    54.5110 hn         1 U8I       0.478000
     35 H9          -0.3280     9.5830    57.1390 hc         1 U8I       0.034700
     36 H10          0.9570     8.6920    57.9810 hc         1 U8I       0.034700
     37 H11          0.8870     8.6830    56.2060 hc         1 U8I       0.034700
     38 H12         -7.2870     8.7230    61.7830 ha         1 U8I       0.129500
     39 H13         -3.7590    10.5360    63.5250 ha         1 U8I       0.129500
     40 H14         -2.3850     8.7040    62.6430 ha         1 U8I       0.088000
     41 H15         -1.3020     7.4590    56.2940 hc         1 U8I       0.068200
     42 H16         -1.2720     7.4700    58.0350 hc         1 U8I       0.068200
     43 H17         -1.4530     7.7690    60.7450 ha         1 U8I       0.112000
     44 H18          2.5620     2.7960    58.8490 hn         1 U8I       0.486000
     45 H19          1.9420     3.9110    60.0230 hn         1 U8I       0.486000
@<TRIPOS>BOND
     1     1    12 ar  
     2     1    13 1   
     3     1    15 ar  
     4     2    11 ar  
     5     2    17 ar  
     6     2    27 1   
     7     3     4 ar  
     8     3    15 ar  
     9     3    24 1   
    10     4     6 1   
    11     4    14 ar  
    12     5     9 ar  
    13     5    10 ar  
    14     5    28 1   
    15     6     7 1   
    16     6    29 1   
    17     6    30 1   
    18     7     8 ar  
    19     7    23 ar  
    20     8     9 ar  
    21     8    31 1   
    22     9    32 1   
    23    10    11 1   
    24    10    23 ar  
    25    11    21 ar  
    26    12    14 ar  
    27    13    33 1   
    28    13    34 1   
    29    14    22 1   
    30    16    22 1   
    31    16    35 1   
    32    16    36 1   
    33    16    37 1   
    34    17    18 ar  
    35    17    38 1   
    36    18    19 1   
    37    18    20 ar  
    38    19    25 1   
    39    19    26 1   
    40    20    21 ar  
    41    20    39 1   
    42    21    40 1   
    43    22    41 1   
    44    22    42 1   
    45    23    43 1   
    46    24    44 1   
    47    24    45 1   
@<TRIPOS>SUBSTRUCTURE
     1 U8I         1 TEMP              0 ****  ****    0 ROOT
