@<TRIPOS>MOLECULE
U8J
   49    52     1     0     0
SMALL
No Charge or Current Charge


@<TRIPOS>ATOM
      1 C10         20.4180   -19.1300     2.9510 ca         1 U8J       0.353000
      2 C12         20.0000   -16.6460     2.4420 ca         1 U8J       0.411900
      3 C14         19.6680   -14.5670     1.5670 ca         1 U8J       0.174500
      4 C15         19.7920   -14.0380     2.8280 ca         1 U8J      -0.233800
      5 C16         19.5920   -12.6190     2.7330 cc         1 U8J      -0.198200
      6 C17         19.3720   -12.3330     1.3970 cd         1 U8J      -0.173100
      7 C02         21.4240   -22.7040     5.2330 c          1 U8J       0.616700
      8 C04         21.1110   -25.1840     5.4930 c3         1 U8J       0.095300
      9 C05         21.0620   -21.4760     4.4210 ca         1 U8J      -0.190600
     10 C06         21.5970   -20.2210     4.7880 ca         1 U8J      -0.039500
     11 C07         21.2810   -19.0630     4.0570 ca         1 U8J      -0.174500
     12 C08         20.2070   -21.5390     3.2950 ca         1 U8J      -0.039500
     13 C09         19.8970   -20.3750     2.5700 ca         1 U8J      -0.174500
     14 C19         20.0210   -14.8900     3.9290 ca         1 U8J       0.324500
     15 C20         20.2510   -14.4190     5.2940 cc         1 U8J      -0.293500
     16 C21         20.8590   -13.2350     5.5920 cd         1 U8J      -0.126000
     17 C24         23.0630   -12.4070     8.1590 c3         1 U8J      -0.092400
     18 C25         23.9950   -12.3920     6.9280 c3         1 U8J      -0.093100
     19 C27         20.1020   -15.1130     6.5020 cc         1 U8J       0.291900
     20 N03         20.8730   -23.9000     4.8300 ns         1 U8J      -0.506900
     21 N11         20.0870   -18.0070     2.1870 nu         1 U8J      -0.930900
     22 N13         19.7690   -15.8890     1.3530 nb         1 U8J      -0.277000
     23 N18         19.4270   -13.5440     0.6640 na         1 U8J      -0.328400
     24 N22         20.9830   -13.2530     6.9860 na         1 U8J       0.135800
     25 N26         20.5120   -14.4330     7.5540 nd         1 U8J      -0.530800
     26 N28         20.1310   -16.2170     3.7130 nb         1 U8J      -0.262000
     27 O01         22.1690   -22.6470     6.2020 o          1 U8J      -0.608100
     28 H1          19.5680   -11.8880     3.5400 ha         1 U8J       0.202000
     29 H2          19.1710   -11.3740     0.9210 h4         1 U8J       0.217000
     30 H3          20.5550   -25.9740     4.9720 h1         1 U8J       0.038700
     31 H4          22.1830   -25.4200     5.4680 h1         1 U8J       0.038700
     32 H5          20.7720   -25.1300     6.5360 h1         1 U8J       0.038700
     33 H6          22.2680   -20.1380     5.6410 ha         1 U8J       0.121000
     34 H7          21.7300   -18.1210     4.3510 ha         1 U8J       0.132000
     35 H8          19.7720   -22.4790     2.9650 ha         1 U8J       0.121000
     36 H9          19.2370   -20.4450     1.7100 ha         1 U8J       0.132000
     37 H10         21.2320   -12.4270     4.9730 h4         1 U8J       0.156000
     38 H11         21.4490   -11.2310     7.3000 h1         1 U8J       0.060200
     39 H12         20.9950   -12.1310     8.7550 h1         1 U8J       0.060200
     40 H13         23.1790   -13.3600     8.6900 hc         1 U8J       0.058200
     41 H14         23.3820   -11.6190     8.8520 hc         1 U8J       0.058200
     42 H15         25.0410   -12.4940     7.2410 hc         1 U8J       0.038367
     43 H16         23.7620   -13.2210     6.2480 hc         1 U8J       0.038367
     44 H17         23.8930   -11.4500     6.3750 hc         1 U8J       0.038367
     45 H18         19.7050   -16.1100     6.6440 h4         1 U8J       0.052100
     46 H19         20.2650   -23.8790     4.0220 hn         1 U8J       0.313500
     47 H20         19.7590   -18.2370     1.2510 hn         1 U8J       0.508000
     48 H21         19.3000   -13.6560    -0.3370 hn         1 U8J       0.362000
     49 C23         21.5690   -12.1890     7.8210 c3         1 U8J       0.087600
@<TRIPOS>BOND
     1     1    11 ar  
     2     1    13 ar  
     3     1    21 1   
     4     2    21 1   
     5     2    22 ar  
     6     2    26 ar  
     7     3     4 ar  
     8     3    22 ar  
     9     3    23 1   
    10     4     5 1   
    11     4    14 ar  
    12     5     6 2   
    13     5    28 1   
    14     6    23 1   
    15     6    29 1   
    16     7     9 1   
    17     7    20 1   
    18     7    27 2   
    19     8    20 1   
    20     8    30 1   
    21     8    31 1   
    22     8    32 1   
    23     9    10 ar  
    24     9    12 ar  
    25    10    11 ar  
    26    10    33 1   
    27    11    34 1   
    28    12    13 ar  
    29    12    35 1   
    30    13    36 1   
    31    14    15 1   
    32    14    26 ar  
    33    15    16 2   
    34    15    19 1   
    35    16    24 1   
    36    16    37 1   
    37    17    18 1   
    38    17    40 1   
    39    17    41 1   
    40    17    49 1   
    41    18    42 1   
    42    18    43 1   
    43    18    44 1   
    44    19    25 2   
    45    19    45 1   
    46    20    46 1   
    47    21    47 1   
    48    23    48 1   
    49    24    25 1   
    50    24    49 1   
    51    38    49 1   
    52    39    49 1   
@<TRIPOS>SUBSTRUCTURE
     1 U8J         1 TEMP              0 ****  ****    0 ROOT
