@<TRIPOS>MOLECULE
U8J
   49    52     1     0     0
SMALL
bcc


@<TRIPOS>ATOM
      1 C10         20.3720   -19.0910     2.9350 ca         1 U8J       0.214600
      2 C12         19.9830   -16.6660     2.3810 ca         1 U8J       0.937900
      3 C14         19.5100   -14.6520     1.5850 ca         1 U8J       0.502800
      4 C15         19.8170   -14.0260     2.8140 ca         1 U8J      -0.364400
      5 C16         19.5690   -12.6270     2.6350 cc         1 U8J      -0.148200
      6 C17         19.1460   -12.4730     1.3510 cd         1 U8J      -0.123100
      7 C02         21.3030   -22.6230     5.2310 c          1 U8J       0.683700
      8 C04         21.0240   -25.0210     5.5690 c3         1 U8J       0.095300
      9 C05         20.9690   -21.4310     4.4010 ca         1 U8J      -0.190600
     10 C06         21.1140   -20.1660     4.9620 ca         1 U8J      -0.057500
     11 C07         20.8200   -19.0110     4.2590 ca         1 U8J      -0.192500
     12 C08         20.5420   -21.5050     3.0750 ca         1 U8J      -0.057500
     13 C09         20.2520   -20.3630     2.3570 ca         1 U8J      -0.192500
     14 C19         20.2430   -14.8930     3.8230 ca         1 U8J       0.652800
     15 C20         20.6220   -14.4660     5.1560 cc         1 U8J      -0.358800
     16 C21         20.8860   -13.1920     5.6340 cd         1 U8J      -0.093300
     17 C24         23.0630   -12.4010     8.2620 c3         1 U8J      -0.092400
     18 C25         24.0360   -12.3620     7.0940 c3         1 U8J      -0.093100
     19 C27         20.8180   -15.2900     6.2860 cc         1 U8J       0.357200
     20 N03         20.7740   -23.7970     4.8460 ns         1 U8J      -0.573900
     21 N11         20.0460   -18.0150     2.1340 nu         1 U8J      -0.737300
     22 N13         19.5850   -15.9480     1.3350 nb         1 U8J      -0.803000
     23 N18         19.1140   -13.6940     0.7190 na         1 U8J      -0.278100
     24 N22         21.1950   -13.3190     6.9290 na         1 U8J       0.114400
     25 N26         21.1580   -14.5850     7.3420 nd         1 U8J      -0.530800
     26 N28         20.3110   -16.2040     3.5830 nb         1 U8J      -0.788000
     27 O01         22.0230   -22.5310     6.2200 o          1 U8J      -0.608100
     28 H1          19.6720   -11.8280     3.3500 ha         1 U8J       0.152000
     29 H2          18.8560   -11.5790     0.8240 h4         1 U8J       0.167000
     30 H3          20.5510   -25.8390     5.0320 h1         1 U8J       0.038700
     31 H4          22.0910   -25.2300     5.6370 h1         1 U8J       0.038700
     32 H5          20.6150   -24.9930     6.5810 h1         1 U8J       0.038700
     33 H6          21.4590   -20.0720     5.9830 ha         1 U8J       0.139000
     34 H7          20.9360   -18.0520     4.7350 ha         1 U8J       0.150000
     35 H8          20.4490   -22.4560     2.5650 ha         1 U8J       0.139000
     36 H9          19.9280   -20.4560     1.3270 ha         1 U8J       0.150000
     37 H10         20.8960   -12.2290     5.1520 h4         1 U8J       0.174000
     38 H11         21.4360   -11.3220     7.3360 h1         1 U8J       0.060200
     39 H12         20.9510   -12.3010     8.7150 h1         1 U8J       0.060200
     40 H13         23.1940   -13.3230     8.8330 hc         1 U8J       0.058200
     41 H14         23.2720   -11.5800     8.9520 hc         1 U8J       0.058200
     42 H15         25.0660   -12.3880     7.4490 hc         1 U8J       0.038367
     43 H16         23.9010   -13.2130     6.4260 hc         1 U8J       0.038367
     44 H17         23.9110   -11.4530     6.5030 hc         1 U8J       0.038367
     45 H18         20.7030   -16.3600     6.3550 h4         1 U8J       0.052100
     46 H19         20.0750   -23.8190     4.1240 hn         1 U8J       0.313500
     47 H20         19.7610   -18.2490     1.1950 hn         1 U8J       0.452800
     48 H21         18.8290   -13.8530    -0.2340 hn         1 U8J       0.311700
     49 C23         21.6060   -12.2710     7.8430 c3         1 U8J       0.058300
@<TRIPOS>BOND
     1     1    11 ar  
     2     1    13 ar  
     3     1    21 1   
     4     2    21 1   
     5     2    22 ar  
     6     2    26 ar  
     7     3     4 ar  
     8     3    22 ar  
     9     3    23 1   
    10     4     5 1   
    11     4    14 ar  
    12     5     6 2   
    13     5    28 1   
    14     6    23 1   
    15     6    29 1   
    16     7     9 1   
    17     7    20 1   
    18     7    27 2   
    19     8    20 1   
    20     8    30 1   
    21     8    31 1   
    22     8    32 1   
    23     9    10 ar  
    24     9    12 ar  
    25    10    11 ar  
    26    10    33 1   
    27    11    34 1   
    28    12    13 ar  
    29    12    35 1   
    30    13    36 1   
    31    14    15 1   
    32    14    26 ar  
    33    15    16 2   
    34    15    19 1   
    35    16    24 1   
    36    16    37 1   
    37    17    18 1   
    38    17    40 1   
    39    17    41 1   
    40    17    49 1   
    41    18    42 1   
    42    18    43 1   
    43    18    44 1   
    44    19    25 2   
    45    19    45 1   
    46    20    46 1   
    47    21    47 1   
    48    23    48 1   
    49    24    25 1   
    50    24    49 1   
    51    38    49 1   
    52    39    49 1   
@<TRIPOS>SUBSTRUCTURE
     1 U8J         1 TEMP              0 ****  ****    0 ROOT
