@<TRIPOS>MOLECULE
U8K
   28    29     1     0     0
SMALL
abcg2


@<TRIPOS>ATOM
      1 C1           1.7550     0.1470     0.3650 ca         1 U8K       0.264500
      2 C2           1.1200    -0.6700    -0.5850 ca         1 U8K       0.207000
      3 C3           1.2950    -2.0480    -0.5090 ca         1 U8K      -0.109000
      4 C5           2.6450    -1.6860     1.4150 ca         1 U8K       0.302900
      5 C7           1.6630     1.6750     0.3260 c          1 U8K       0.616500
      6 O9           2.1170     2.2950     1.2850 o          1 U8K      -0.676000
      7 N10          0.3540    -0.0790    -1.6120 nu         1 U8K      -0.871100
      8 C14         -1.8930    -0.0070    -0.0810 ca         1 U8K      -0.293500
      9 O8           1.1360     2.1770    -0.7070 o          1 U8K      -0.676000
     10 N6           2.5000    -0.3740     1.3340 nb         1 U8K      -0.627000
     11 C4           2.0660    -2.5660     0.5130 ca         1 U8K      -0.178000
     12 S11         -1.2670    -0.4110    -1.6880 sy         1 U8K       1.127600
     13 O13         -1.8010     0.5320    -2.6570 o          1 U8K      -0.566500
     14 O12         -1.4520    -1.8370    -1.8990 o          1 U8K      -0.566500
     15 C19         -2.0810    -1.0130     0.8570 ca         1 U8K      -0.003000
     16 C18         -2.5050    -0.6710     2.1330 ca         1 U8K      -0.135500
     17 C17         -2.7320     0.6580     2.4590 ca         1 U8K      -0.067000
     18 C16         -2.5360     1.6550     1.5120 ca         1 U8K      -0.135500
     19 C15         -2.1100     1.3290     0.2340 ca         1 U8K      -0.003000
     20 H1           0.8480    -2.7010    -1.2450 ha         1 U8K       0.131000
     21 H2           3.2550    -2.0590     2.2300 h4         1 U8K      -0.002900
     22 H4           0.5260     0.9610    -1.5380 hn         1 U8K       0.570000
     23 H5           2.2260    -3.6320     0.6050 ha         1 U8K       0.101000
     24 H6          -1.9060    -2.0490     0.6020 ha         1 U8K       0.137000
     25 H7          -2.6580    -1.4480     2.8710 ha         1 U8K       0.107000
     26 H8          -3.0630     0.9210     3.4550 ha         1 U8K       0.100000
     27 H9          -2.7130     2.6910     1.7680 ha         1 U8K       0.107000
     28 H10         -1.9620     2.1080    -0.5010 ha         1 U8K       0.137000
@<TRIPOS>BOND
     1     1     2 ar  
     2     1     5 1   
     3     1    10 ar  
     4     2     3 ar  
     5     2     7 1   
     6     3    11 ar  
     7     3    20 1   
     8     4    10 ar  
     9     4    11 ar  
    10     4    21 1   
    11     5     6 1   
    12     5     9 1   
    13     7    12 1   
    14     7    22 1   
    15     8    12 1   
    16     8    15 ar  
    17     8    19 ar  
    18    11    23 1   
    19    12    13 2   
    20    12    14 2   
    21    15    16 ar  
    22    15    24 1   
    23    16    17 ar  
    24    16    25 1   
    25    17    18 ar  
    26    17    26 1   
    27    18    19 ar  
    28    18    27 1   
    29    19    28 1   
@<TRIPOS>SUBSTRUCTURE
     1 U8K         1 TEMP              0 ****  ****    0 ROOT
