@<TRIPOS>MOLECULE
U8K
   28    29     1     0     0
SMALL
No Charge or Current Charge


@<TRIPOS>ATOM
      1 C1           2.0060     0.2290     0.2480 ca         1 U8K       0.264500
      2 C2           1.1620    -0.6140    -0.5540 ca         1 U8K       0.207000
      3 C3           1.1590    -1.9980    -0.2890 ca         1 U8K      -0.109000
      4 C5           2.7530    -1.6200     1.4900 ca         1 U8K       0.302900
      5 C7           2.0570     1.7650     0.0050 c          1 U8K       0.616500
      6 O9           2.7950     2.4560     0.7020 o          1 U8K      -0.676000
      7 N10          0.3530    -0.1170    -1.5870 nu         1 U8K      -0.871100
      8 C14         -1.9420    -0.0100    -0.0960 ca         1 U8K      -0.293500
      9 O8           1.3650     2.2630    -0.8800 o          1 U8K      -0.676000
     10 N6           2.7860    -0.2930     1.2570 nb         1 U8K      -0.627000
     11 C4           1.9610    -2.5030     0.7450 ca         1 U8K      -0.178000
     12 S11         -1.2980    -0.3040    -1.7450 sy         1 U8K       1.127600
     13 O13         -1.6470     0.8120    -2.6240 o          1 U8K      -0.566500
     14 O12         -1.4780    -1.7040    -2.1380 o          1 U8K      -0.566500
     15 C19         -2.1880    -1.0950     0.7710 ca         1 U8K      -0.003000
     16 C18         -2.6710    -0.8600     2.0700 ca         1 U8K      -0.135500
     17 C17         -2.9080     0.4540     2.5090 ca         1 U8K      -0.067000
     18 C16         -2.6600     1.5360     1.6470 ca         1 U8K      -0.135500
     19 C15         -2.1760     1.3080     0.3470 ca         1 U8K      -0.003000
     20 H1           0.5530    -2.6770    -0.8810 ha         1 U8K       0.131000
     21 H2           3.3860    -1.9860     2.2980 h4         1 U8K      -0.002900
     22 H4           0.4480     0.8960    -1.7000 hn         1 U8K       0.570000
     23 H5           1.9740    -3.5660     0.9680 ha         1 U8K       0.101000
     24 H6          -2.0020    -2.1180     0.4470 ha         1 U8K       0.137000
     25 H7          -2.8600    -1.6970     2.7380 ha         1 U8K       0.107000
     26 H8          -3.2820     0.6330     3.5140 ha         1 U8K       0.100000
     27 H9          -2.8400     2.5520     1.9870 ha         1 U8K       0.107000
     28 H10         -1.9820     2.1570    -0.3080 ha         1 U8K       0.137000
@<TRIPOS>BOND
     1     1     2 ar  
     2     1     5 1   
     3     1    10 ar  
     4     2     3 ar  
     5     2     7 1   
     6     3    11 ar  
     7     3    20 1   
     8     4    10 ar  
     9     4    11 ar  
    10     4    21 1   
    11     5     6 1   
    12     5     9 1   
    13     7    12 1   
    14     7    22 1   
    15     8    12 1   
    16     8    15 ar  
    17     8    19 ar  
    18    11    23 1   
    19    12    13 2   
    20    12    14 2   
    21    15    16 ar  
    22    15    24 1   
    23    16    17 ar  
    24    16    25 1   
    25    17    18 ar  
    26    17    26 1   
    27    18    19 ar  
    28    18    27 1   
    29    19    28 1   
@<TRIPOS>SUBSTRUCTURE
     1 U8K         1 TEMP              0 ****  ****    0 ROOT
