@<TRIPOS>MOLECULE
U8M
   27    28     1     0     0
SMALL
No Charge or Current Charge


@<TRIPOS>ATOM
      1 N1          14.9500    37.2040     5.8920 nb         1 U8M      -0.863000
      2 N3          11.6150    34.1840     6.1710 ne         1 U8M      -0.181400
      3 C4          14.0690    36.2900     5.5260 ca         1 U8M       0.728900
      4 C5          13.7720    35.0970     6.2180 ca         1 U8M      -0.178600
      5 C6          11.2350    35.1560     7.1300 ca         1 U8M       0.040400
      6 C7          10.8040    36.4290     6.7030 ca         1 U8M      -0.104000
      7 C8          10.4270    37.4070     7.6410 ca         1 U8M      -0.096000
      8 C10         10.8860    35.8470     9.4480 ca         1 U8M       0.135000
      9 C1          14.4770    34.8540     7.4090 ca         1 U8M       0.036000
     10 C2          15.4050    35.8220     7.8190 ca         1 U8M      -0.307000
     11 C3          15.5810    36.9460     7.0160 ca         1 U8M       0.707900
     12 N2          12.8170    34.1510     5.7360 nf         1 U8M      -0.128400
     13 C9          10.4700    37.1160     9.0160 ca         1 U8M      -0.134000
     14 C11         11.2640    34.8650     8.5120 ca         1 U8M       0.141000
     15 N4          16.4210    37.9270     7.2960 nv         1 U8M      -1.078900
     16 N5          13.5290    36.6550     4.3680 nv         1 U8M      -1.056900
     17 F1          11.6580    33.6420     8.9440 f          1 U8M      -0.149000
     18 F2          10.9190    35.5740    10.7730 f          1 U8M      -0.161000
     19 H3          10.7700    36.6610     5.6410 ha         1 U8M       0.132000
     20 H4          10.1020    38.3890     7.3020 ha         1 U8M       0.123000
     21 H1          14.3090    33.9510     7.9930 ha         1 U8M       0.123000
     22 H2          15.9770    35.6950     8.7320 ha         1 U8M       0.124000
     23 H5          10.1790    37.8700     9.7440 ha         1 U8M       0.136000
     24 H6          16.2370    38.7570     6.7500 hn         1 U8M       0.500000
     25 H7          16.6280    38.0790     8.2760 hn         1 U8M       0.500000
     26 H9          14.0720    37.3650     3.8980 hn         1 U8M       0.506500
     27 H8          13.1790    35.9030     3.7900 hn         1 U8M       0.506500
@<TRIPOS>BOND
     1     1     3 ar  
     2     1    11 ar  
     3     2     5 1   
     4     2    12 2   
     5     3     4 ar  
     6     3    16 1   
     7     4     9 ar  
     8     4    12 1   
     9     5     6 ar  
    10     5    14 ar  
    11     6     7 ar  
    12     6    19 1   
    13     7    13 ar  
    14     7    20 1   
    15     8    13 ar  
    16     8    14 ar  
    17     8    18 1   
    18     9    10 ar  
    19     9    21 1   
    20    10    11 ar  
    21    10    22 1   
    22    11    15 1   
    23    13    23 1   
    24    14    17 1   
    25    15    24 1   
    26    15    25 1   
    27    16    26 1   
    28    16    27 1   
@<TRIPOS>SUBSTRUCTURE
     1 U8M         1 TEMP              0 ****  ****    0 ROOT
