@<TRIPOS>MOLECULE
U8M
   27    28     1     0     0
SMALL
abcg2


@<TRIPOS>ATOM
      1 N1          15.6590    36.9290     5.3120 nb         1 U8M      -0.863000
      2 N3          11.5790    34.6610     6.1620 ne         1 U8M      -0.181400
      3 C4          14.5820    36.1940     5.0480 ca         1 U8M       0.728900
      4 C5          13.6360    35.8130     6.0520 ca         1 U8M      -0.178600
      5 C6          11.1440    35.2460     7.3720 ca         1 U8M       0.040400
      6 C7          10.7340    36.5780     7.4440 ca         1 U8M      -0.104000
      7 C8          10.1710    37.0730     8.6070 ca         1 U8M      -0.096000
      8 C10         10.3950    34.9390     9.6390 ca         1 U8M       0.135000
      9 C1          13.9280    36.2220     7.3710 ca         1 U8M       0.036000
     10 C2          15.0420    36.9590     7.6440 ca         1 U8M      -0.307000
     11 C3          15.8940    37.3110     6.5630 ca         1 U8M       0.707900
     12 N2          12.6340    34.9950     5.5890 nf         1 U8M      -0.128400
     13 C9          10.0010    36.2580     9.7210 ca         1 U8M      -0.134000
     14 C11         10.9500    34.4320     8.4770 ca         1 U8M       0.141000
     15 N4          16.9930    38.0380     6.7850 nv         1 U8M      -1.078900
     16 N5          14.3930    35.8440     3.7690 nv         1 U8M      -1.056900
     17 F1          11.3310    33.1510     8.4320 f          1 U8M      -0.149000
     18 F2          10.2480    34.1220    10.6870 f          1 U8M      -0.161000
     19 H3          10.8570    37.2200     6.5820 ha         1 U8M       0.132000
     20 H4           9.8560    38.1060     8.6530 ha         1 U8M       0.123000
     21 H1          13.3000    35.9310     8.1980 ha         1 U8M       0.123000
     22 H2          15.2870    37.2520     8.6550 ha         1 U8M       0.124000
     23 H5           9.5660    36.6360    10.6360 ha         1 U8M       0.136000
     24 H6          17.5840    38.3090     6.0180 hn         1 U8M       0.500000
     25 H7          17.2080    38.3980     7.6980 hn         1 U8M       0.500000
     26 H9          15.1240    36.0140     3.1010 hn         1 U8M       0.506500
     27 H8          13.6560    35.2050     3.5290 hn         1 U8M       0.506500
@<TRIPOS>BOND
     1     1     3 ar  
     2     1    11 ar  
     3     2     5 1   
     4     2    12 2   
     5     3     4 ar  
     6     3    16 1   
     7     4     9 ar  
     8     4    12 1   
     9     5     6 ar  
    10     5    14 ar  
    11     6     7 ar  
    12     6    19 1   
    13     7    13 ar  
    14     7    20 1   
    15     8    13 ar  
    16     8    14 ar  
    17     8    18 1   
    18     9    10 ar  
    19     9    21 1   
    20    10    11 ar  
    21    10    22 1   
    22    11    15 1   
    23    13    23 1   
    24    14    17 1   
    25    15    24 1   
    26    15    25 1   
    27    16    26 1   
    28    16    27 1   
@<TRIPOS>SUBSTRUCTURE
     1 U8M         1 TEMP              0 ****  ****    0 ROOT
