@<TRIPOS>MOLECULE
U8N
   19    20     1     0     0
SMALL
No Charge or Current Charge


@<TRIPOS>ATOM
      1 C2          28.7910   -10.8350   -12.5660 ca         1 U8N      -0.127000
      2 C           30.5770    -9.2260   -12.9380 ca         1 U8N      -0.133000
      3 O           28.2110   -10.8890   -16.8250 o          1 U8N      -0.560000
      4 C3          28.5560   -10.8940   -13.9490 ca         1 U8N      -0.044000
      5 C4          29.3300   -10.1180   -14.8380 ca         1 U8N      -0.149600
      6 C5          29.0750   -10.1840   -16.3240 c          1 U8N       0.563600
      7 C6          30.8930    -8.5520   -16.6470 cc         1 U8N      -0.097400
      8 C7          31.1440    -8.4760   -15.2960 cd         1 U8N       0.054900
      9 C8          30.3510    -9.2750   -14.3340 ca         1 U8N      -0.025800
     10 N           29.8820    -9.3910   -17.1090 ns         1 U8N      -0.372100
     11 O1          32.1220    -7.6660   -14.8350 oh         1 U8N      -0.537100
     12 C1          29.8000   -10.0020   -12.0620 ca         1 U8N      -0.073000
     13 H1          28.1900   -11.4350   -11.8860 ha         1 U8N       0.122000
     14 H2          31.3500    -8.5920   -12.5120 ha         1 U8N       0.108000
     15 H3          27.7690   -11.5440   -14.3280 ha         1 U8N       0.140000
     16 H4          31.4190    -8.0070   -17.4240 h4         1 U8N       0.214000
     17 H5          29.6940    -9.4500   -18.1040 hn         1 U8N       0.331500
     18 H6          32.1410    -7.7530   -13.8600 ho         1 U8N       0.470000
     19 H7          29.9810    -9.9570   -10.9900 ha         1 U8N       0.116000
@<TRIPOS>BOND
     1     1     4 ar  
     2     1    12 ar  
     3     1    13 1   
     4     2     9 ar  
     5     2    12 ar  
     6     2    14 1   
     7     3     6 2   
     8     4     5 ar  
     9     4    15 1   
    10     5     6 1   
    11     5     9 ar  
    12     6    10 1   
    13     7     8 2   
    14     7    10 1   
    15     7    16 1   
    16     8     9 1   
    17     8    11 1   
    18    10    17 1   
    19    11    18 1   
    20    12    19 1   
@<TRIPOS>SUBSTRUCTURE
     1 U8N         1 TEMP              0 ****  ****    0 ROOT
