@<TRIPOS>MOLECULE
U8N
   19    20     1     0     0
SMALL
bcc


@<TRIPOS>ATOM
      1 C2          28.7860   -10.8330   -12.6100 ca         1 U8N      -0.145000
      2 C           30.5670    -9.2450   -12.9490 ca         1 U8N      -0.151000
      3 O           28.1840   -10.8990   -16.7730 o          1 U8N      -0.635500
      4 C3          28.5640   -10.8760   -13.9690 ca         1 U8N      -0.062000
      5 C4          29.3370   -10.1060   -14.8430 ca         1 U8N      -0.149600
      6 C5          29.0600   -10.1950   -16.2810 c          1 U8N       0.706100
      7 C6          30.8630    -8.5940   -16.5840 cc         1 U8N      -0.047400
      8 C7          31.1310    -8.4880   -15.2680 cd         1 U8N       0.054900
      9 C8          30.3550    -9.2710   -14.3380 ca         1 U8N      -0.025800
     10 N           29.8710    -9.4220   -17.0500 ns         1 U8N      -0.439100
     11 O1          32.1200    -7.6460   -14.8850 oh         1 U8N      -0.498100
     12 C1          29.7950   -10.0120   -12.1040 ca         1 U8N      -0.091000
     13 H1          28.1850   -11.4320   -11.9400 ha         1 U8N       0.140000
     14 H2          31.3390    -8.6290   -12.5070 ha         1 U8N       0.126000
     15 H3          27.7870   -11.5100   -14.3740 ha         1 U8N       0.158000
     16 H4          31.4080    -8.0400   -17.3350 h4         1 U8N       0.164000
     17 H5          29.7210    -9.4550   -18.0480 hn         1 U8N       0.331500
     18 H6          32.2240    -7.6160   -13.9310 ho         1 U8N       0.431000
     19 H7          29.9790    -9.9760   -11.0380 ha         1 U8N       0.134000
@<TRIPOS>BOND
     1     1     4 ar  
     2     1    12 ar  
     3     1    13 1   
     4     2     9 ar  
     5     2    12 ar  
     6     2    14 1   
     7     3     6 2   
     8     4     5 ar  
     9     4    15 1   
    10     5     6 1   
    11     5     9 ar  
    12     6    10 1   
    13     7     8 2   
    14     7    10 1   
    15     7    16 1   
    16     8     9 1   
    17     8    11 1   
    18    10    17 1   
    19    11    18 1   
    20    12    19 1   
@<TRIPOS>SUBSTRUCTURE
     1 U8N         1 TEMP              0 ****  ****    0 ROOT
