@<TRIPOS>MOLECULE
U8O
   15    16     1     0     0
SMALL
No Charge or Current Charge


@<TRIPOS>ATOM
      1 C10         14.0180   -18.6670     0.1860 ca         1 U8O      -0.275900
      2 C02         15.0820   -19.5830     0.4780 cc         1 U8O       0.643800
      3 C05         13.0920   -19.2940    -0.6030 ca         1 U8O       0.376300
      4 C07         11.7590   -17.4250    -0.6890 ca         1 U8O       0.363900
      5 C08         12.6610   -16.7050     0.1250 ca         1 U8O      -0.184000
      6 C09         13.8320   -17.3350     0.5850 ca         1 U8O      -0.009000
      7 N01         16.1440   -19.2510     1.2170 nv         1 U8O      -0.996200
      8 N03         15.0320   -20.8060    -0.0110 nd         1 U8O      -0.610200
      9 N06         11.9610   -18.7150    -1.0580 nb         1 U8O      -0.632000
     10 S04         13.6080   -20.9690    -0.9220 ss         1 U8O       0.105200
     11 H1          10.8470   -16.9540    -1.0550 h4         1 U8O       0.024100
     12 H2          12.4460   -15.6740     0.3910 ha         1 U8O       0.128000
     13 H3          14.5470   -16.8120     1.2180 ha         1 U8O       0.120000
     14 H4          16.9300   -19.8860     1.1540 hn         1 U8O       0.472500
     15 H5          16.3660   -18.2660     1.2960 hn         1 U8O       0.472500
@<TRIPOS>BOND
     1     1     2 1   
     2     1     3 ar  
     3     1     6 ar  
     4     2     7 1   
     5     2     8 2   
     6     3     9 ar  
     7     3    10 1   
     8     4     5 ar  
     9     4     9 ar  
    10     4    11 1   
    11     5     6 ar  
    12     5    12 1   
    13     6    13 1   
    14     7    14 1   
    15     7    15 1   
    16     8    10 1   
@<TRIPOS>SUBSTRUCTURE
     1 U8O         1 TEMP              0 ****  ****    0 ROOT
