@<TRIPOS>MOLECULE
U8O
   15    16     1     0     0
SMALL
abcg2


@<TRIPOS>ATOM
      1 C10         14.0370   -18.6570     0.1790 ca         1 U8O      -0.275900
      2 C02         15.1170   -19.5820     0.4590 cc         1 U8O       0.643800
      3 C05         13.0670   -19.2770    -0.6140 ca         1 U8O       0.376300
      4 C07         11.7670   -17.4520    -0.6780 ca         1 U8O       0.363900
      5 C08         12.6610   -16.7270     0.1160 ca         1 U8O      -0.184000
      6 C09         13.8190   -17.3350     0.5570 ca         1 U8O      -0.009000
      7 N01         16.1670   -19.2630     1.2590 nv         1 U8O      -0.996200
      8 N03         14.9830   -20.7660    -0.0630 nd         1 U8O      -0.610200
      9 N06         11.9510   -18.7100    -1.0450 nb         1 U8O      -0.632000
     10 S04         13.5540   -20.9090    -0.9320 ss         1 U8O       0.105200
     11 H1          10.8550   -16.9800    -1.0280 h4         1 U8O       0.024100
     12 H2          12.4340   -15.7030     0.3760 ha         1 U8O       0.128000
     13 H3          14.5260   -16.7960     1.1760 ha         1 U8O       0.120000
     14 H4          16.9550   -19.8910     1.2310 hn         1 U8O       0.472500
     15 H5          16.4300   -18.2930     1.3170 hn         1 U8O       0.472500
@<TRIPOS>BOND
     1     1     2 1   
     2     1     3 ar  
     3     1     6 ar  
     4     2     7 1   
     5     2     8 2   
     6     3     9 ar  
     7     3    10 1   
     8     4     5 ar  
     9     4     9 ar  
    10     4    11 1   
    11     5     6 ar  
    12     5    12 1   
    13     6    13 1   
    14     7    14 1   
    15     7    15 1   
    16     8    10 1   
@<TRIPOS>SUBSTRUCTURE
     1 U8O         1 TEMP              0 ****  ****    0 ROOT
