@<TRIPOS>MOLECULE
U8P
   70    74     1     0     0
SMALL
bcc


@<TRIPOS>ATOM
      1 C10         21.8240    13.5400     8.3690 cc         1 U8P      -0.081300
      2 C11         21.8600    14.7650     9.0060 cd         1 U8P      -0.339800
      3 C12         21.2360    15.1680    10.2540 ca         1 U8P       0.641800
      4 C01         22.1620     9.6300     2.3280 c3         1 U8P      -0.064100
      5 C02         21.3140    10.8730     2.1480 c3         1 U8P      -0.180600
      6 C06         22.3990    13.1080     4.7750 cy         1 U8P       0.197800
      7 C07         22.7850    12.7060     6.2090 cy         1 U8P       0.056700
      8 C08         21.7770    11.5470     6.0800 cy         1 U8P       0.197800
      9 C14         20.5500    16.9240    11.5680 ca         1 U8P       0.936900
     10 C16         20.8090    19.3670    11.0210 ca         1 U8P       0.219600
     11 C17         20.5130    20.6340    11.5530 ca         1 U8P      -0.201500
     12 C18         20.8480    21.7840    10.8750 ca         1 U8P      -0.041000
     13 C19         21.4940    21.7270     9.6390 ca         1 U8P      -0.183600
     14 C20         21.8380    22.9920     8.9490 c          1 U8P       0.676700
     15 C22         22.9710    23.8280     6.9390 c3         1 U8P       0.184800
     16 C23         23.9960    24.7100     7.6410 c3         1 U8P      -0.106767
     17 C24         21.8030    24.6360     6.3870 c3         1 U8P      -0.106767
     18 C25         23.6420    23.0530     5.8120 c3         1 U8P      -0.106767
     19 C27         21.7840    20.4710     9.1110 ca         1 U8P      -0.041000
     20 C28         21.4500    19.3060     9.7780 ca         1 U8P      -0.201500
     21 C30         20.1400    14.8840    12.3300 ca         1 U8P       0.502800
     22 C31         20.7440    14.2750    11.2060 ca         1 U8P      -0.359400
     23 C32         20.6620    12.8610    11.4100 cc         1 U8P      -0.150200
     24 C33         20.0270    12.6820    12.6000 cd         1 U8P      -0.116100
     25 C35         22.6120    15.5810     8.1320 cd         1 U8P       0.367200
     26 C37         24.2400    12.2390     6.2920 c3         1 U8P      -0.013300
     27 C38         24.5270    11.6170     7.5740 c1         1 U8P       0.200700
     28 N05         21.8340    11.7590     4.6270 nq         1 U8P      -0.745500
     29 N09         22.5020    13.6870     7.2200 na         1 U8P       0.101400
     30 N13         21.1390    16.4820    10.4610 nb         1 U8P      -0.785000
     31 N15         20.4370    18.2770    11.7790 nu         1 U8P      -0.736300
     32 N29         20.0240    16.1840    12.5380 nb         1 U8P      -0.795000
     33 N34         19.7110    13.9020    13.1510 na         1 U8P      -0.277100
     34 N36         22.9980    14.9170     7.0680 nc         1 U8P      -0.536800
     35 N39         24.7340    11.1280     8.5950 n1         1 U8P      -0.352800
     36 O04         19.7610    12.6130     3.3690 o          1 U8P      -0.603300
     37 O21         22.5050    22.7740     7.8290 os         1 U8P      -0.439900
     38 O26         21.5360    24.0820     9.3800 o          1 U8P      -0.556000
     39 O40         19.8640    10.2840     4.3030 o          1 U8P      -0.603300
     40 S03         20.5290    11.4100     3.6590 s6         1 U8P       1.193900
     41 H1          21.3510    12.6100     8.6390 h4         1 U8P       0.182000
     42 H2          22.5980     9.3590     1.3680 hc         1 U8P       0.051033
     43 H3          22.9760     9.8000     3.0290 hc         1 U8P       0.051033
     44 H4          21.5690     8.7860     2.6750 hc         1 U8P       0.051033
     45 H5          21.8970    11.7230     1.7890 h1         1 U8P       0.100200
     46 H6          20.4950    10.7100     1.4440 h1         1 U8P       0.100200
     47 H7          23.2120    13.3400     4.0870 h1         1 U8P       0.084950
     48 H8          21.6540    13.9050     4.7580 h1         1 U8P       0.084950
     49 H9          20.8060    11.7800     6.5230 h1         1 U8P       0.084950
     50 H10         22.1070    10.5630     6.4090 h1         1 U8P       0.084950
     51 H11         20.0140    20.7070    12.5120 ha         1 U8P       0.150000
     52 H12         20.6040    22.7420    11.3150 ha         1 U8P       0.148000
     53 H13         23.5570    25.3180     8.4280 hc         1 U8P       0.048256
     54 H14         24.8000    24.1090     8.0680 hc         1 U8P       0.048256
     55 H15         24.4430    25.3860     6.9100 hc         1 U8P       0.048256
     56 H16         21.3370    25.2700     7.1380 hc         1 U8P       0.048256
     57 H17         22.1680    25.2810     5.5870 hc         1 U8P       0.048256
     58 H18         21.0420    23.9810     5.9600 hc         1 U8P       0.048256
     59 H19         24.4710    22.4500     6.1850 hc         1 U8P       0.048256
     60 H20         22.9340    22.3940     5.3070 hc         1 U8P       0.048256
     61 H21         24.0400    23.7480     5.0740 hc         1 U8P       0.048256
     62 H22         22.2810    20.3800     8.1550 ha         1 U8P       0.148000
     63 H23         21.6840    18.3530     9.3360 ha         1 U8P       0.150000
     64 H24         21.0290    12.0690    10.7790 ha         1 U8P       0.155000
     65 H25         19.7700    11.7700    13.1130 h4         1 U8P       0.169000
     66 H26         22.8810    16.6190     8.2570 h4         1 U8P       0.056100
     67 H27         24.4460    11.5180     5.4980 hc         1 U8P       0.096200
     68 H28         24.9160    13.0840     6.1500 hc         1 U8P       0.096200
     69 H29         19.9750    18.4960    12.6490 hn         1 U8P       0.454800
     70 H30         19.2440    14.0430    14.0330 hn         1 U8P       0.313700
@<TRIPOS>BOND
     1     1     2 2   
     2     1    29 1   
     3     1    41 1   
     4     2     3 1   
     5     2    25 1   
     6     3    22 ar  
     7     3    30 ar  
     8     4     5 1   
     9     4    42 1   
    10     4    43 1   
    11     4    44 1   
    12     5    40 1   
    13     5    45 1   
    14     5    46 1   
    15     6     7 1   
    16     6    28 1   
    17     6    47 1   
    18     6    48 1   
    19     7     8 1   
    20     7    26 1   
    21     7    29 1   
    22     8    28 1   
    23     8    49 1   
    24     8    50 1   
    25     9    30 ar  
    26     9    31 1   
    27     9    32 ar  
    28    10    11 ar  
    29    10    20 ar  
    30    10    31 1   
    31    11    12 ar  
    32    11    51 1   
    33    12    13 ar  
    34    12    52 1   
    35    13    14 1   
    36    13    19 ar  
    37    14    37 1   
    38    14    38 2   
    39    15    16 1   
    40    15    17 1   
    41    15    18 1   
    42    15    37 1   
    43    16    53 1   
    44    16    54 1   
    45    16    55 1   
    46    17    56 1   
    47    17    57 1   
    48    17    58 1   
    49    18    59 1   
    50    18    60 1   
    51    18    61 1   
    52    19    20 ar  
    53    19    62 1   
    54    20    63 1   
    55    21    22 ar  
    56    21    32 ar  
    57    21    33 1   
    58    22    23 1   
    59    23    24 2   
    60    23    64 1   
    61    24    33 1   
    62    24    65 1   
    63    25    34 2   
    64    25    66 1   
    65    26    27 1   
    66    26    67 1   
    67    26    68 1   
    68    27    35 3   
    69    28    40 1   
    70    29    34 1   
    71    31    69 1   
    72    33    70 1   
    73    36    40 2   
    74    39    40 2   
@<TRIPOS>SUBSTRUCTURE
     1 U8P         1 TEMP              0 ****  ****    0 ROOT
