@<TRIPOS>MOLECULE
U8P
   70    74     1     0     0
SMALL
No Charge or Current Charge


@<TRIPOS>ATOM
      1 C10         21.6110    13.3950     8.5920 cc         1 U8P      -0.114000
      2 C11         21.7150    14.6400     9.1570 cd         1 U8P      -0.274500
      3 C12         21.1020    15.1460    10.4000 ca         1 U8P       0.313500
      4 C01         23.2090    10.5820     1.9200 c3         1 U8P      -0.064100
      5 C02         21.8910    11.3930     1.9830 c3         1 U8P      -0.291400
      6 C06         22.4210    12.8170     4.9420 cy         1 U8P       0.197800
      7 C07         22.6010    12.4140     6.4550 cy         1 U8P       0.086000
      8 C08         21.3740    11.4750     6.1290 cy         1 U8P       0.197800
      9 C14         20.5450    16.9880    11.6690 ca         1 U8P       0.410900
     10 C16         21.0260    19.4520    11.1270 ca         1 U8P       0.358000
     11 C17         21.4530    20.6040    11.8010 ca         1 U8P      -0.183500
     12 C18         21.8850    21.7350    11.0880 ca         1 U8P      -0.023000
     13 C19         21.8870    21.7340     9.6760 ca         1 U8P      -0.183600
     14 C20         22.3550    22.9580     8.9230 c          1 U8P       0.627700
     15 C22         22.7000    23.8370     6.6250 c3         1 U8P       0.208000
     16 C23         24.2060    24.1580     6.8110 c3         1 U8P      -0.106767
     17 C24         21.7860    25.0780     6.8000 c3         1 U8P      -0.106767
     18 C25         22.4650    23.2060     5.2340 c3         1 U8P      -0.106767
     19 C27         21.4390    20.5770     8.9990 ca         1 U8P      -0.023000
     20 C28         21.0090    19.4500     9.7220 ca         1 U8P      -0.183500
     21 C30         19.8910    14.9610    12.4780 ca         1 U8P       0.174500
     22 C31         20.4630    14.3550    11.3830 ca         1 U8P      -0.228800
     23 C32         20.2990    12.9350    11.5410 cc         1 U8P      -0.200200
     24 C33         19.6070    12.7350    12.7230 cd         1 U8P      -0.166100
     25 C35         22.5190    15.4050     8.2810 cd         1 U8P       0.301900
     26 C37         23.9470    11.7010     6.7860 c3         1 U8P      -0.013300
     27 C38         23.8880    10.9650     8.0540 c1         1 U8P       0.289900
     28 N05         21.9300    11.4250     4.7520 nq         1 U8P      -0.745500
     29 N09         22.3700    13.4830     7.4270 na         1 U8P       0.122800
     30 N13         21.1400    16.4850    10.5700 nb         1 U8P      -0.259000
     31 N15         20.5970    18.3580    11.8820 nu         1 U8P      -0.929900
     32 N29         19.9260    16.2940    12.6400 nb         1 U8P      -0.269000
     33 N34         19.3420    13.9960    13.3060 na         1 U8P      -0.327400
     34 N36         22.9360    14.7240     7.2310 nc         1 U8P      -0.536800
     35 N39         23.8100    10.3810     9.0600 n1         1 U8P      -0.442000
     36 O04         19.7750    11.9940     3.5010 o          1 U8P      -0.532500
     37 O21         22.3020    22.8020     7.5550 os         1 U8P      -0.463100
     38 O26         22.7370    23.9680     9.4970 o          1 U8P      -0.507000
     39 O40         20.6460     9.6020     3.5130 o          1 U8P      -0.532500
     40 S03         20.8910    11.0450     3.4440 s6         1 U8P       1.163100
     41 H1          21.0800    12.4980     8.8750 h4         1 U8P       0.164000
     42 H2          23.7660    10.8320     1.0090 hc         1 U8P       0.051033
     43 H3          23.8520    10.8050     2.7810 hc         1 U8P       0.051033
     44 H4          23.0080     9.5040     1.9100 hc         1 U8P       0.051033
     45 H5          22.0990    12.4670     2.0030 h1         1 U8P       0.100200
     46 H6          21.2550    11.1640     1.1220 h1         1 U8P       0.100200
     47 H7          23.3480    13.0800     4.4190 h1         1 U8P       0.084950
     48 H8          21.6730    13.6060     4.7870 h1         1 U8P       0.084950
     49 H9          20.4020    11.9780     6.2240 h1         1 U8P       0.084950
     50 H10         21.3500    10.5240     6.6730 h1         1 U8P       0.084950
     51 H11         21.4620    20.6250    12.8870 ha         1 U8P       0.132000
     52 H12         22.2190    22.6130    11.6380 ha         1 U8P       0.130000
     53 H13         24.3940    24.7310     7.7240 hc         1 U8P       0.048256
     54 H14         24.7980    23.2360     6.8520 hc         1 U8P       0.048256
     55 H15         24.5740    24.7580     5.9710 hc         1 U8P       0.048256
     56 H16         22.0200    25.6350     7.7140 hc         1 U8P       0.048256
     57 H17         21.9160    25.7700     5.9590 hc         1 U8P       0.048256
     58 H18         20.7310    24.7830     6.8350 hc         1 U8P       0.048256
     59 H19         23.0720    22.3000     5.1100 hc         1 U8P       0.048256
     60 H20         21.4120    22.9320     5.1030 hc         1 U8P       0.048256
     61 H21         22.7360    23.9070     4.4360 hc         1 U8P       0.048256
     62 H22         21.4130    20.5410     7.9110 ha         1 U8P       0.130000
     63 H23         20.6460    18.5870     9.1760 ha         1 U8P       0.132000
     64 H24         20.6720    12.1330    10.9110 ha         1 U8P       0.205000
     65 H25         19.3020    11.8010    13.1940 h4         1 U8P       0.219000
     66 H26         22.8170    16.4420     8.3840 h4         1 U8P       0.056100
     67 H27         24.2200    10.9910     5.9980 hc         1 U8P       0.096200
     68 H28         24.7640    12.4300     6.8410 hc         1 U8P       0.096200
     69 H29         20.3320    18.6040    12.8350 hn         1 U8P       0.510000
     70 H30         18.8550    14.1730    14.1800 hn         1 U8P       0.364000
@<TRIPOS>BOND
     1     1     2 2   
     2     1    29 1   
     3     1    41 1   
     4     2     3 1   
     5     2    25 1   
     6     3    22 ar  
     7     3    30 ar  
     8     4     5 1   
     9     4    42 1   
    10     4    43 1   
    11     4    44 1   
    12     5    40 1   
    13     5    45 1   
    14     5    46 1   
    15     6     7 1   
    16     6    28 1   
    17     6    47 1   
    18     6    48 1   
    19     7     8 1   
    20     7    26 1   
    21     7    29 1   
    22     8    28 1   
    23     8    49 1   
    24     8    50 1   
    25     9    30 ar  
    26     9    31 1   
    27     9    32 ar  
    28    10    11 ar  
    29    10    20 ar  
    30    10    31 1   
    31    11    12 ar  
    32    11    51 1   
    33    12    13 ar  
    34    12    52 1   
    35    13    14 1   
    36    13    19 ar  
    37    14    37 1   
    38    14    38 2   
    39    15    16 1   
    40    15    17 1   
    41    15    18 1   
    42    15    37 1   
    43    16    53 1   
    44    16    54 1   
    45    16    55 1   
    46    17    56 1   
    47    17    57 1   
    48    17    58 1   
    49    18    59 1   
    50    18    60 1   
    51    18    61 1   
    52    19    20 ar  
    53    19    62 1   
    54    20    63 1   
    55    21    22 ar  
    56    21    32 ar  
    57    21    33 1   
    58    22    23 1   
    59    23    24 2   
    60    23    64 1   
    61    24    33 1   
    62    24    65 1   
    63    25    34 2   
    64    25    66 1   
    65    26    27 1   
    66    26    67 1   
    67    26    68 1   
    68    27    35 3   
    69    28    40 1   
    70    29    34 1   
    71    31    69 1   
    72    33    70 1   
    73    36    40 2   
    74    39    40 2   
@<TRIPOS>SUBSTRUCTURE
     1 U8P         1 TEMP              0 ****  ****    0 ROOT
