@<TRIPOS>MOLECULE
U8Q
   31    32     1     0     0
SMALL
No Charge or Current Charge


@<TRIPOS>ATOM
      1 F1          38.8430    14.8670    16.2090 f          1 U8Q      -0.116667
      2 C1          38.9680    15.8510    17.1290 c3         1 U8Q       0.362300
      3 F2          40.2870    15.9820    17.3920 f          1 U8Q      -0.116667
      4 F3          38.3820    15.3970    18.2600 f          1 U8Q      -0.116667
      5 C2          38.3630    17.1760    16.6520 ca         1 U8Q      -0.245300
      6 C3          37.8510    18.1050    17.5830 ca         1 U8Q      -0.019500
      7 C4          37.3050    19.3250    17.1490 ca         1 U8Q      -0.188000
      8 C5          37.2740    19.6400    15.7730 ca         1 U8Q       0.186100
      9 O1          36.7450    20.8160    15.2720 os         1 U8Q      -0.348100
     10 C6          36.4150    21.9360    16.1200 c6         1 U8Q       0.178300
     11 C7          37.6960    22.6240    16.6620 c6         1 U8Q      -0.131900
     12 C8          37.3390    23.8900    17.4730 c6         1 U8Q       0.151300
     13 N1          36.5280    24.8260    16.6580 n7         1 U8Q      -0.845400
     14 C9          35.2760    24.2140    16.1530 c6         1 U8Q       0.151300
     15 C10         35.5840    22.9570    15.3090 c6         1 U8Q      -0.131900
     16 C11         37.7830    18.7160    14.8480 ca         1 U8Q      -0.188000
     17 C12         38.3300    17.4960    15.2780 ca         1 U8Q      -0.019500
     18 H1          37.8730    17.8850    18.6490 ha         1 U8Q       0.128500
     19 H2          36.9110    20.0060    17.8960 ha         1 U8Q       0.128500
     20 H3          35.7920    21.5880    16.9560 h1         1 U8Q       0.049700
     21 H4          38.2670    21.9370    17.2990 hc         1 U8Q       0.059700
     22 H5          38.3560    22.8940    15.8260 hc         1 U8Q       0.059700
     23 H6          38.2620    24.3900    17.8050 h1         1 U8Q       0.056950
     24 H7          36.7780    23.6030    18.3750 h1         1 U8Q       0.056950
     25 H8          37.0910    25.1250    15.8510 hn         1 U8Q       0.408000
     26 H10         34.7250    24.9440    15.5410 h1         1 U8Q       0.056950
     27 H11         34.6300    23.9390    17.0010 h1         1 U8Q       0.056950
     28 H12         34.6430    22.4940    14.9820 hc         1 U8Q       0.059700
     29 H13         36.1270    23.2440    14.3980 hc         1 U8Q       0.059700
     30 H14         37.7590    18.9520    13.7880 ha         1 U8Q       0.128500
     31 H15         38.7280    16.8030    14.5380 ha         1 U8Q       0.128500
@<TRIPOS>BOND
     1     1     2 1   
     2     2     3 1   
     3     2     4 1   
     4     2     5 1   
     5     5     6 ar  
     6     5    17 ar  
     7     6     7 ar  
     8     6    18 1   
     9     7     8 ar  
    10     7    19 1   
    11     8     9 1   
    12     8    16 ar  
    13     9    10 1   
    14    10    11 1   
    15    10    15 1   
    16    10    20 1   
    17    11    12 1   
    18    11    21 1   
    19    11    22 1   
    20    12    13 1   
    21    12    23 1   
    22    12    24 1   
    23    13    14 1   
    24    13    25 1   
    25    14    15 1   
    26    14    26 1   
    27    14    27 1   
    28    15    28 1   
    29    15    29 1   
    30    16    17 ar  
    31    16    30 1   
    32    17    31 1   
@<TRIPOS>SUBSTRUCTURE
     1 U8Q         1 TEMP              0 ****  ****    0 ROOT
