@<TRIPOS>MOLECULE
U8Q
   31    32     1     0     0
SMALL
bcc


@<TRIPOS>ATOM
      1 F1          38.1500    14.8550    16.4260 f          1 U8Q      -0.237967
      2 C1          38.7900    15.8430    17.0730 c3         1 U8Q       0.726200
      3 F2          40.0970    15.6690    16.8140 f          1 U8Q      -0.237967
      4 F3          38.6230    15.6210    18.3810 f          1 U8Q      -0.237967
      5 C2          38.3110    17.1910    16.6530 ca         1 U8Q      -0.245300
      6 C3          37.8890    18.1370    17.5740 ca         1 U8Q      -0.037500
      7 C4          37.4540    19.3890    17.1630 ca         1 U8Q      -0.206000
      8 C5          37.4330    19.7090    15.8060 ca         1 U8Q       0.186100
      9 O1          37.0070    20.8690    15.2930 os         1 U8Q      -0.324900
     10 C6          36.5680    21.9350    16.1370 c6         1 U8Q       0.155100
     11 C7          37.7420    22.7190    16.7060 c6         1 U8Q      -0.131900
     12 C8          37.2280    23.9410    17.4730 c6         1 U8Q       0.151300
     13 N1          36.3530    24.8000    16.6950 n7         1 U8Q      -0.790200
     14 C9          35.2500    24.0550    16.1140 c6         1 U8Q       0.151300
     15 C10         35.6860    22.8400    15.2930 c6         1 U8Q      -0.131900
     16 C11         37.8710    18.7560    14.8780 ca         1 U8Q      -0.206000
     17 C12         38.3030    17.5170    15.2960 ca         1 U8Q      -0.037500
     18 H1          37.8890    17.9210    18.6340 ha         1 U8Q       0.146500
     19 H2          37.1360    20.0930    17.9180 ha         1 U8Q       0.146500
     20 H3          35.9610    21.5320    16.9570 h1         1 U8Q       0.049700
     21 H4          38.3540    22.0980    17.3650 hc         1 U8Q       0.059700
     22 H5          38.3830    23.0480    15.8820 hc         1 U8Q       0.059700
     23 H6          38.0710    24.5300    17.8370 h1         1 U8Q       0.056950
     24 H7          36.6760    23.6060    18.3580 h1         1 U8Q       0.056950
     25 H8          36.8900    25.2300    15.9500 hn         1 U8Q       0.352800
     26 H10         34.6540    24.7260    15.4940 h1         1 U8Q       0.056950
     27 H11         34.5980    23.7230    16.9300 h1         1 U8Q       0.056950
     28 H12         34.8090    22.2910    14.9410 hc         1 U8Q       0.059700
     29 H13         36.2420    23.1740    14.4110 hc         1 U8Q       0.059700
     30 H14         37.8610    19.0000    13.8230 ha         1 U8Q       0.146500
     31 H15         38.6320    16.8020    14.5530 ha         1 U8Q       0.146500
@<TRIPOS>BOND
     1     1     2 1   
     2     2     3 1   
     3     2     4 1   
     4     2     5 1   
     5     5     6 ar  
     6     5    17 ar  
     7     6     7 ar  
     8     6    18 1   
     9     7     8 ar  
    10     7    19 1   
    11     8     9 1   
    12     8    16 ar  
    13     9    10 1   
    14    10    11 1   
    15    10    15 1   
    16    10    20 1   
    17    11    12 1   
    18    11    21 1   
    19    11    22 1   
    20    12    13 1   
    21    12    23 1   
    22    12    24 1   
    23    13    14 1   
    24    13    25 1   
    25    14    15 1   
    26    14    26 1   
    27    14    27 1   
    28    15    28 1   
    29    15    29 1   
    30    16    17 ar  
    31    16    30 1   
    32    17    31 1   
@<TRIPOS>SUBSTRUCTURE
     1 U8Q         1 TEMP              0 ****  ****    0 ROOT
