@<TRIPOS>MOLECULE
U8R
   36    39     1     0     0
SMALL
No Charge or Current Charge


@<TRIPOS>ATOM
      1 C1          36.3090    43.8190    15.9900 ca         1 U8R      -0.102000
      2 C2          35.7540    43.1020    17.0640 ca         1 U8R       0.084100
      3 C3          35.7510    41.6880    17.0230 ca         1 U8R      -0.102000
      4 C7          37.3960    39.8130    11.6250 cc         1 U8R      -0.286200
      5 C8          38.7800    39.8100    11.5360 cd         1 U8R      -0.176800
      6 C9          39.4910    40.4380    12.6050 cd         1 U8R       0.234800
      7 C10         38.8350    41.0370    13.6960 cd         1 U8R      -0.017400
      8 C11         39.8030    41.5140    14.5560 cc         1 U8R      -0.153300
      9 C12         39.7480    42.1960    15.8660 cx         1 U8R      -0.075400
     10 C13         40.7510    41.8200    16.9360 cx         1 U8R      -0.116900
     11 C14         39.3040    41.4300    17.0920 cx         1 U8R      -0.116900
     12 C15         34.6450    43.2600    19.3020 c3         1 U8R       0.384300
     13 F1          33.5730    42.4920    18.9990 f          1 U8R      -0.137000
     14 F           35.5320    42.4740    19.9560 f          1 U8R      -0.137000
     15 O1          35.2310    43.8380    18.1130 os         1 U8R      -0.388100
     16 C4          36.3110    41.0130    15.9230 ca         1 U8R      -0.088500
     17 C5          36.8880    41.7370    14.8640 ca         1 U8R       0.053600
     18 C           36.8660    43.1430    14.8900 ca         1 U8R      -0.088500
     19 N           37.4310    41.0450    13.7360 n          1 U8R      -0.192200
     20 N1          40.9840    41.1800    13.8740 na         1 U8R       0.034800
     21 N2          40.7990    40.5070    12.6720 nc         1 U8R      -0.480800
     22 C6          36.6390    40.4340    12.7370 c          1 U8R       0.567200
     23 O           35.4160    40.4260    12.7800 o          1 U8R      -0.536000
     24 H1          36.3070    44.9060    16.0100 ha         1 U8R       0.133500
     25 H2          35.3250    41.0950    17.8260 ha         1 U8R       0.133500
     26 H3          36.7790    39.3530    10.8610 ha         1 U8R       0.210000
     27 H4          39.3080    39.3500    10.7050 ha         1 U8R       0.203000
     28 H5          39.4900    43.2510    15.7990 hc         1 U8R       0.096700
     29 H6          41.4620    41.0230    16.7300 hc         1 U8R       0.078200
     30 H7          41.1320    42.6140    17.5740 hc         1 U8R       0.078200
     31 H8          38.7100    41.9620    17.8310 hc         1 U8R       0.078200
     32 H9          39.0460    40.3810    16.9700 hc         1 U8R       0.078200
     33 H10         34.3190    44.0530    19.9840 h3         1 U8R       0.106700
     34 H11         36.3050    39.9260    15.8950 ha         1 U8R       0.131000
     35 H12         37.2900    43.7080    14.0630 ha         1 U8R       0.131000
     36 H13         41.9250    41.3880    14.2040 hn         1 U8R       0.378000
@<TRIPOS>BOND
     1     1     2 ar  
     2     1    18 ar  
     3     1    24 1   
     4     2     3 ar  
     5     2    15 1   
     6     3    16 ar  
     7     3    25 1   
     8     4     5 2   
     9     4    22 1   
    10     4    26 1   
    11     5     6 1   
    12     5    27 1   
    13     6     7 1   
    14     6    21 2   
    15     7     8 2   
    16     7    19 1   
    17     8     9 1   
    18     8    20 1   
    19     9    10 1   
    20     9    11 1   
    21     9    28 1   
    22    10    11 1   
    23    10    29 1   
    24    10    30 1   
    25    11    31 1   
    26    11    32 1   
    27    12    13 1   
    28    12    14 1   
    29    12    15 1   
    30    12    33 1   
    31    16    17 ar  
    32    16    34 1   
    33    17    18 ar  
    34    17    19 1   
    35    18    35 1   
    36    19    22 1   
    37    20    21 1   
    38    20    36 1   
    39    22    23 2   
@<TRIPOS>SUBSTRUCTURE
     1 U8R         1 TEMP              0 ****  ****    0 ROOT
