@<TRIPOS>MOLECULE
U8R
   36    39     1     0     0
SMALL
abcg2


@<TRIPOS>ATOM
      1 C1          36.0260    43.6550    15.9680 ca         1 U8R      -0.102000
      2 C2          35.4050    42.8410    16.9020 ca         1 U8R       0.084100
      3 C3          35.3930    41.4630    16.7560 ca         1 U8R      -0.102000
      4 C7          37.5610    40.1030    11.4860 cc         1 U8R      -0.286200
      5 C8          38.9020    39.9920    11.5480 cd         1 U8R      -0.176800
      6 C9          39.5530    40.4590    12.7250 cd         1 U8R       0.234800
      7 C10         38.7940    41.0080    13.7730 cd         1 U8R      -0.017400
      8 C11         39.7090    41.3550    14.7530 cc         1 U8R      -0.153300
      9 C12         39.5950    42.0100    16.0670 cx         1 U8R      -0.075400
     10 C13         40.4640    41.5680    17.2120 cx         1 U8R      -0.116900
     11 C14         38.9970    41.2880    17.2380 cx         1 U8R      -0.116900
     12 C15         35.4720    43.6210    19.1050 c3         1 U8R       0.384300
     13 F1          35.9290    42.4500    19.6110 f          1 U8R      -0.137000
     14 F           36.5770    44.3640    18.8610 f          1 U8R      -0.137000
     15 O1          34.7530    43.4210    17.9750 os         1 U8R      -0.388100
     16 C4          36.0410    40.8900    15.6730 ca         1 U8R      -0.088500
     17 C5          36.6900    41.6960    14.7520 ca         1 U8R       0.053600
     18 C           36.6650    43.0760    14.8840 ca         1 U8R      -0.088500
     19 N           37.4210    41.1080    13.6810 n          1 U8R      -0.192200
     20 N1          40.9030    41.0010    14.2180 na         1 U8R       0.034800
     21 N2          40.8500    40.4610    13.0190 nc         1 U8R      -0.480800
     22 C6          36.7440    40.6790    12.5560 c          1 U8R       0.567200
     23 O           35.5290    40.7870    12.4770 o          1 U8R      -0.536000
     24 H1          36.0050    44.7310    16.0770 ha         1 U8R       0.133500
     25 H2          34.8830    40.8390    17.4770 ha         1 U8R       0.133500
     26 H3          37.0150    39.7670    10.6140 ha         1 U8R       0.210000
     27 H4          39.4710    39.5630    10.7330 ha         1 U8R       0.203000
     28 H5          39.3880    43.0740    16.0190 hc         1 U8R       0.096700
     29 H6          41.1360    40.7320    17.0610 hc         1 U8R       0.078200
     30 H7          40.8560    42.3400    17.8600 hc         1 U8R       0.078200
     31 H8          38.3660    41.8620    17.9040 hc         1 U8R       0.078200
     32 H9          38.6760    40.2660    17.0850 hc         1 U8R       0.078200
     33 H10         34.8430    44.1200    19.8400 h3         1 U8R       0.106700
     34 H11         36.0600    39.8140    15.5600 ha         1 U8R       0.131000
     35 H12         37.1620    43.6980    14.1510 ha         1 U8R       0.131000
     36 H13         41.7990    41.1230    14.6670 hn         1 U8R       0.378000
@<TRIPOS>BOND
     1     1     2 ar  
     2     1    18 ar  
     3     1    24 1   
     4     2     3 ar  
     5     2    15 1   
     6     3    16 ar  
     7     3    25 1   
     8     4     5 2   
     9     4    22 1   
    10     4    26 1   
    11     5     6 1   
    12     5    27 1   
    13     6     7 1   
    14     6    21 2   
    15     7     8 2   
    16     7    19 1   
    17     8     9 1   
    18     8    20 1   
    19     9    10 1   
    20     9    11 1   
    21     9    28 1   
    22    10    11 1   
    23    10    29 1   
    24    10    30 1   
    25    11    31 1   
    26    11    32 1   
    27    12    13 1   
    28    12    14 1   
    29    12    15 1   
    30    12    33 1   
    31    16    17 ar  
    32    16    34 1   
    33    17    18 ar  
    34    17    19 1   
    35    18    35 1   
    36    19    22 1   
    37    20    21 1   
    38    20    36 1   
    39    22    23 2   
@<TRIPOS>SUBSTRUCTURE
     1 U8R         1 TEMP              0 ****  ****    0 ROOT
