@<TRIPOS>MOLECULE
U8S
   22    22     1     0     0
SMALL
No Charge or Current Charge


@<TRIPOS>ATOM
      1 CE1          4.6710    15.6020   -62.0840 c5         1 U8S       0.628700
      2 ND1          4.7270    16.2390   -63.3940 nu         1 U8S      -0.775200
      3 NE2          4.6180    14.1620   -62.3810 nu         1 U8S      -0.777200
      4 CD2          4.6080    14.0560   -63.7620 c2         1 U8S      -0.205000
      5 CG           4.6680    15.2340   -64.3340 c2         1 U8S       0.078800
      6 CB           4.6420    15.5830   -65.8170 c3         1 U8S       0.002800
      7 CA           3.3990    16.4100   -66.2570 c3         1 U8S       0.029500
      8 N            3.1400    16.2340   -67.7390 n8         1 U8S      -1.012200
      9 C            3.4950    17.9000   -65.7070 c          1 U8S       0.719000
     10 O            3.9420    18.7780   -66.4360 o          1 U8S      -0.729500
     11 O12          3.4800    15.9830   -61.4830 oh         1 U8S      -0.719000
     12 OXT          3.0360    18.1350   -64.5950 o          1 U8S      -0.729500
     13 H1           5.4890    15.8970   -61.4060 h3         1 U8S       0.057700
     14 H11          4.0510    16.9990   -63.5300 hn         1 U8S       0.534000
     15 H4           3.9830    13.5770   -61.8410 hn         1 U8S       0.409000
     16 H6           4.5230    13.0810   -64.2540 h4         1 U8S       0.195000
     17 H9           4.6690    14.6480   -66.3910 hc         1 U8S       0.044700
     18 H10          5.5540    16.1290   -66.0900 hc         1 U8S       0.044700
     19 HA           2.5250    15.9600   -65.7640 h1         1 U8S       0.008700
     20 H            2.9110    15.2520   -67.9330 hn         1 U8S       0.388500
     21 H2           2.2820    16.7400   -67.9940 hn         1 U8S       0.388500
     22 H15          3.5180    15.5780   -60.5940 ho         1 U8S       0.419000
@<TRIPOS>BOND
     1     1     2 1   
     2     1     3 1   
     3     1    11 1   
     4     1    13 1   
     5     2     5 1   
     6     2    14 1   
     7     3     4 1   
     8     3    15 1   
     9     4     5 2   
    10     4    16 1   
    11     5     6 1   
    12     6     7 1   
    13     6    17 1   
    14     6    18 1   
    15     7     8 1   
    16     7     9 1   
    17     7    19 1   
    18     8    20 1   
    19     8    21 1   
    20     9    10 1   
    21     9    12 1   
    22    11    22 1   
@<TRIPOS>SUBSTRUCTURE
     1 U8S         1 TEMP              0 ****  ****    0 ROOT
