@<TRIPOS>MOLECULE
U8S
   22    22     1     0     0
SMALL
abcg2


@<TRIPOS>ATOM
      1 CE1          4.5260    15.4870   -62.0450 c5         1 U8S       0.628700
      2 ND1          4.9090    16.1260   -63.2720 nu         1 U8S      -0.775200
      3 NE2          4.7200    14.0760   -62.3600 nu         1 U8S      -0.777200
      4 CD2          4.5680    13.9760   -63.7760 c2         1 U8S      -0.205000
      5 CG           4.6900    15.1950   -64.3160 c2         1 U8S       0.078800
      6 CB           4.6810    15.6210   -65.7420 c3         1 U8S       0.002800
      7 CA           3.4360    16.4170   -66.2050 c3         1 U8S       0.029500
      8 N            3.2610    16.2220   -67.6490 n8         1 U8S      -1.012200
      9 C            3.4670    17.9380   -65.8840 c          1 U8S       0.719000
     10 O            2.9780    18.7110   -66.7420 o          1 U8S      -0.729500
     11 O12          3.1470    15.8170   -61.7380 oh         1 U8S      -0.719000
     12 OXT          3.9380    18.2900   -64.7690 o          1 U8S      -0.729500
     13 H1           5.1260    15.7960   -61.1860 h3         1 U8S       0.057700
     14 H11          4.5220    17.0510   -63.4660 hn         1 U8S       0.534000
     15 H4           4.1330    13.4640   -61.8070 hn         1 U8S       0.409000
     16 H6           4.4800    13.0190   -64.2630 h4         1 U8S       0.195000
     17 H9           4.7230    14.7190   -66.3550 hc         1 U8S       0.044700
     18 H10          5.5790    16.2060   -65.9700 hc         1 U8S       0.044700
     19 HA           2.5750    16.0330   -65.6380 h1         1 U8S       0.008700
     20 H            2.7900    15.3410   -67.8280 hn         1 U8S       0.388500
     21 H2           2.6640    16.9700   -67.9880 hn         1 U8S       0.388500
     22 H15          3.0170    15.7030   -60.7880 ho         1 U8S       0.419000
@<TRIPOS>BOND
     1     1     2 1   
     2     1     3 1   
     3     1    11 1   
     4     1    13 1   
     5     2     5 1   
     6     2    14 1   
     7     3     4 1   
     8     3    15 1   
     9     4     5 2   
    10     4    16 1   
    11     5     6 1   
    12     6     7 1   
    13     6    17 1   
    14     6    18 1   
    15     7     8 1   
    16     7     9 1   
    17     7    19 1   
    18     8    20 1   
    19     8    21 1   
    20     9    10 1   
    21     9    12 1   
    22    11    22 1   
@<TRIPOS>SUBSTRUCTURE
     1 U8S         1 TEMP              0 ****  ****    0 ROOT
