@<TRIPOS>MOLECULE
U8T
   31    33     1     0     0
SMALL
abcg2


@<TRIPOS>ATOM
      1 O1           9.4930    32.0830    58.6600 o          1 U8T      -0.516100
      2 C6           8.4600    31.6070    58.2400 c          1 U8T       0.596700
      3 C1           8.1290    30.1770    58.3870 ca         1 U8T      -0.278600
      4 C7           7.3790    32.4270    57.5890 c6         1 U8T      -0.213400
      5 C8           6.6640    31.6370    56.4990 c6         1 U8T       0.206000
      6 C12          7.6160    31.2890    55.3360 c6         1 U8T      -0.084900
      7 C11          6.8800    31.2170    53.9950 c6         1 U8T       0.168800
      8 N            5.5580    30.6650    54.2040 n7         1 U8T      -0.860400
      9 C10          4.6850    31.5920    54.9100 c6         1 U8T       0.168800
     10 C9           5.4650    32.3960    55.9570 c6         1 U8T      -0.084900
     11 O            6.1290    30.4330    57.0840 os         1 U8T      -0.321100
     12 C            6.9460    29.6830    57.8250 ca         1 U8T       0.205100
     13 C5           6.5870    28.3500    58.0380 ca         1 U8T      -0.162000
     14 C4           7.4010    27.5230    58.7830 ca         1 U8T      -0.023000
     15 C3           8.5930    28.0140    59.3160 ca         1 U8T      -0.078900
     16 BR           9.7100    26.8580    60.3080 br         1 U8T      -0.094100
     17 C2           8.9560    29.3280    59.1260 ca         1 U8T       0.011000
     18 H1           7.7940    33.3500    57.1850 hc         1 U8T       0.083200
     19 H2           6.6640    32.7060    58.3730 hc         1 U8T       0.083200
     20 H3           8.1260    30.3440    55.5370 hc         1 U8T       0.056700
     21 H4           8.3980    32.0480    55.2700 hc         1 U8T       0.056700
     22 H5           7.4320    30.5710    53.3120 h1         1 U8T       0.033950
     23 H6           6.8610    32.2150    53.5300 h1         1 U8T       0.033950
     24 H7           5.1410    30.4100    53.3190 hn         1 U8T       0.416000
     25 H9           4.1940    32.3060    54.2350 h1         1 U8T       0.033950
     26 H10          3.8880    31.0250    55.3970 h1         1 U8T       0.033950
     27 H11          5.8470    33.3200    55.5160 hc         1 U8T       0.056700
     28 H12          4.8030    32.6940    56.7720 hc         1 U8T       0.056700
     29 H13          5.6710    27.9660    57.6090 ha         1 U8T       0.138000
     30 H14          7.1110    26.4910    58.9340 ha         1 U8T       0.131000
     31 H15          9.8700    29.7250    59.5490 ha         1 U8T       0.146000
@<TRIPOS>BOND
     1     1     2 2   
     2     2     3 1   
     3     2     4 1   
     4     3    12 ar  
     5     3    17 ar  
     6     4     5 1   
     7     4    18 1   
     8     4    19 1   
     9     5     6 1   
    10     5    10 1   
    11     5    11 1   
    12     6     7 1   
    13     6    20 1   
    14     6    21 1   
    15     7     8 1   
    16     7    22 1   
    17     7    23 1   
    18     8     9 1   
    19     8    24 1   
    20     9    10 1   
    21     9    25 1   
    22     9    26 1   
    23    10    27 1   
    24    10    28 1   
    25    11    12 1   
    26    12    13 ar  
    27    13    14 ar  
    28    13    29 1   
    29    14    15 ar  
    30    14    30 1   
    31    15    16 1   
    32    15    17 ar  
    33    17    31 1   
@<TRIPOS>SUBSTRUCTURE
     1 U8T         1 TEMP              0 ****  ****    0 ROOT
