@<TRIPOS>MOLECULE
U8T
   31    33     1     0     0
SMALL
No Charge or Current Charge


@<TRIPOS>ATOM
      1 O1           9.5850    32.0480    58.4540 o          1 U8T      -0.516100
      2 C6           8.4830    31.5780    58.2050 c          1 U8T       0.596700
      3 C1           8.1500    30.1420    58.4390 ca         1 U8T      -0.278600
      4 C7           7.3770    32.4170    57.5840 c6         1 U8T      -0.213400
      5 C8           6.6380    31.6130    56.4900 c6         1 U8T       0.206000
      6 C12          7.6000    31.2960    55.2920 c6         1 U8T      -0.084900
      7 C11          6.8910    31.2350    53.9110 c6         1 U8T       0.168800
      8 N            5.4920    30.7760    54.0330 n7         1 U8T      -0.860400
      9 C10          4.6380    31.6700    54.8590 c6         1 U8T       0.168800
     10 C9           5.4210    32.4240    55.9700 c6         1 U8T      -0.084900
     11 O            6.1500    30.3860    57.0850 os         1 U8T      -0.321100
     12 C            6.9760    29.6120    57.8730 ca         1 U8T       0.205100
     13 C5           6.6190    28.2760    58.1110 ca         1 U8T      -0.162000
     14 C4           7.4450    27.4530    58.8960 ca         1 U8T      -0.023000
     15 C3           8.6280    27.9750    59.4450 ca         1 U8T      -0.078900
     16 Br           9.7560    26.8560    60.5110 br         1 U8T      -0.094100
     17 C2           8.9840    29.3160    59.2210 ca         1 U8T       0.011000
     18 H1           7.7680    33.3830    57.2400 hc         1 U8T       0.083200
     19 H2           6.6470    32.5940    58.3840 hc         1 U8T       0.083200
     20 H3           8.1100    30.3400    55.4690 hc         1 U8T       0.056700
     21 H4           8.3990    32.0470    55.2290 hc         1 U8T       0.056700
     22 H5           7.4490    30.5660    53.2390 h1         1 U8T       0.033950
     23 H6           6.8960    32.2370    53.4540 h1         1 U8T       0.033950
     24 H7           5.0720    30.6740    53.1000 hn         1 U8T       0.416000
     25 H9           4.1500    32.4130    54.2100 h1         1 U8T       0.033950
     26 H10          3.8400    31.0660    55.3140 h1         1 U8T       0.033950
     27 H11          5.7730    33.3850    55.5690 hc         1 U8T       0.056700
     28 H12          4.7390    32.6720    56.7940 hc         1 U8T       0.056700
     29 H13          5.7060    27.8770    57.6780 ha         1 U8T       0.138000
     30 H14          7.1700    26.4150    59.0750 ha         1 U8T       0.131000
     31 H15          9.8990    29.7100    59.6610 ha         1 U8T       0.146000
@<TRIPOS>BOND
     1     1     2 2   
     2     2     3 1   
     3     2     4 1   
     4     3    12 ar  
     5     3    17 ar  
     6     4     5 1   
     7     4    18 1   
     8     4    19 1   
     9     5     6 1   
    10     5    10 1   
    11     5    11 1   
    12     6     7 1   
    13     6    20 1   
    14     6    21 1   
    15     7     8 1   
    16     7    22 1   
    17     7    23 1   
    18     8     9 1   
    19     8    24 1   
    20     9    10 1   
    21     9    25 1   
    22     9    26 1   
    23    10    27 1   
    24    10    28 1   
    25    11    12 1   
    26    12    13 ar  
    27    13    14 ar  
    28    13    29 1   
    29    14    15 ar  
    30    14    30 1   
    31    15    16 1   
    32    15    17 ar  
    33    17    31 1   
@<TRIPOS>SUBSTRUCTURE
     1 U8T         1 TEMP              0 ****  ****    0 ROOT
