@<TRIPOS>MOLECULE
U8W
   31    30     1     0     0
SMALL
No Charge or Current Charge


@<TRIPOS>ATOM
      1 C4           0.4400    -5.4940    -1.2120 c3         1 U8W       0.144300
      2 C5           1.3840    -6.6240    -1.7590 c3         1 U8W       0.209300
      3 C6           1.1630    -7.9820    -1.0690 c3         1 U8W      -0.382400
      4 C3           0.5310    -4.1430    -2.0080 c3         1 U8W       0.116300
      5 O11          3.6460    -8.6710    -0.9320 o          1 U8W      -0.712200
      6 S1           2.4040    -9.2010    -1.5060 s6         1 U8W       1.317600
      7 O9           1.9160   -10.4370    -0.8800 o          1 U8W      -0.712200
      8 O10          2.3530    -9.1930    -2.9760 o          1 U8W      -0.712200
      9 O8           1.1630    -6.8240    -3.1570 oh         1 U8W      -0.749000
     10 O7           0.6990    -5.2320     0.1850 oh         1 U8W      -0.768000
     11 O6           1.8940    -3.6360    -2.0280 oh         1 U8W      -0.755000
     12 C1          -0.3910    -3.0440    -1.3950 c3         1 U8W       0.105300
     13 C2          -0.6160    -1.8270    -2.3530 c3         1 U8W       0.239600
     14 O2          -1.2410    -2.2060    -3.5950 os         1 U8W      -0.581400
     15 P1          -2.7310    -2.8150    -3.6750 p5         1 U8W       1.271900
     16 O3          -3.6740    -1.9310    -2.9380 o          1 U8W      -0.926167
     17 O4          -2.7620    -4.1880    -3.1050 o          1 U8W      -0.926167
     18 O5          -3.1370    -2.8730    -5.1050 o          1 U8W      -0.926167
     19 H1          -0.5920    -5.8570    -1.3230 h1         1 U8W       0.065700
     20 H2           2.4230    -6.3120    -1.5890 h1         1 U8W       0.028700
     21 H3           0.1900    -8.4030    -1.3400 h1         1 U8W       0.081200
     22 H4           1.2210    -7.8760     0.0180 h1         1 U8W       0.081200
     23 H5           0.1770    -4.3460    -3.0310 h1         1 U8W       0.118700
     24 H6           1.5780    -7.7130    -3.3440 ho         1 U8W       0.541000
     25 H7           0.5460    -4.2470     0.2630 ho         1 U8W       0.523000
     26 H8           2.4230    -4.2620    -2.5760 ho         1 U8W       0.497000
     27 H9          -1.3730    -3.4850    -1.1770 h1         1 U8W       0.127700
     28 H11          0.3510    -1.3520    -2.5650 h1         1 U8W      -0.016300
     29 H12         -1.2340    -1.0780    -1.8400 h1         1 U8W      -0.016300
     30 O1           0.2320    -2.5950    -0.1640 oh         1 U8W      -0.769000
     31 H10          1.1630    -2.3940    -0.4370 ho         1 U8W       0.484000
@<TRIPOS>BOND
     1     1     2 1   
     2     1     4 1   
     3     1    10 1   
     4     1    19 1   
     5     2     3 1   
     6     2     9 1   
     7     2    20 1   
     8     3     6 1   
     9     3    21 1   
    10     3    22 1   
    11     4    11 1   
    12     4    12 1   
    13     4    23 1   
    14     5     6 1   
    15     6     7 1   
    16     6     8 1   
    17     9    24 1   
    18    10    25 1   
    19    11    26 1   
    20    12    13 1   
    21    12    27 1   
    22    12    30 1   
    23    13    14 1   
    24    13    28 1   
    25    13    29 1   
    26    14    15 1   
    27    15    16 1   
    28    15    17 1   
    29    15    18 1   
    30    30    31 1   
@<TRIPOS>SUBSTRUCTURE
     1 U8W         1 TEMP              0 ****  ****    0 ROOT
