@<TRIPOS>MOLECULE
U8W
   31    30     1     0     0
SMALL
bcc


@<TRIPOS>ATOM
      1 C4           0.4810    -5.5260    -1.1550 c3         1 U8W       0.121100
      2 C5           1.4080    -6.6040    -1.7260 c3         1 U8W       0.186100
      3 C6           1.2110    -7.9340    -1.0000 c3         1 U8W      -0.271600
      4 C3           0.4900    -4.2480    -2.0060 c3         1 U8W       0.093100
      5 O11          3.7250    -8.6930    -1.0200 o          1 U8W      -0.712200
      6 S1           2.4210    -9.1720    -1.5120 s6         1 U8W       1.206800
      7 O9           1.9920   -10.4490    -0.9200 o          1 U8W      -0.712200
      8 O10          2.3400    -9.1750    -3.0010 o          1 U8W      -0.712200
      9 O8           1.1430    -6.7270    -3.1020 oh         1 U8W      -0.626800
     10 O7           0.8700    -5.3170     0.1840 oh         1 U8W      -0.645800
     11 O6           1.7880    -3.7130    -2.1770 oh         1 U8W      -0.632800
     12 C1          -0.3880    -3.1560    -1.4010 c3         1 U8W       0.082100
     13 C2          -0.6240    -1.9770    -2.3530 c3         1 U8W       0.216400
     14 O2          -1.1290    -2.3530    -3.5940 os         1 U8W      -0.558200
     15 P1          -2.8150    -2.6800    -3.7530 p5         1 U8W       1.271900
     16 O3          -3.5050    -1.4380    -3.1970 o          1 U8W      -0.926167
     17 O4          -3.0580    -3.9480    -2.9340 o          1 U8W      -0.926167
     18 O5          -2.9150    -2.8650    -5.2600 o          1 U8W      -0.926167
     19 H1          -0.5540    -5.9060    -1.2050 h1         1 U8W       0.065700
     20 H2           2.4430    -6.2710    -1.5500 h1         1 U8W       0.028700
     21 H3           0.2150    -8.3340    -1.2090 h1         1 U8W       0.081200
     22 H4           1.3110    -7.8140     0.0790 h1         1 U8W       0.081200
     23 H5           0.0360    -4.5060    -2.9660 h1         1 U8W       0.118700
     24 H6           1.5700    -7.5540    -3.3900 ho         1 U8W       0.442000
     25 H7           0.6310    -4.4070     0.4190 ho         1 U8W       0.424000
     26 H8           2.2470    -4.2320    -2.8430 ho         1 U8W       0.398000
     27 H9          -1.3570    -3.5980    -1.1650 h1         1 U8W       0.127700
     28 H11          0.3340    -1.4610    -2.5090 h1         1 U8W      -0.016300
     29 H12         -1.2840    -1.2630    -1.8410 h1         1 U8W      -0.016300
     30 O1           0.1390    -2.6790    -0.1640 oh         1 U8W      -0.646800
     31 H10          0.9790    -2.2400    -0.3450 ho         1 U8W       0.385000
@<TRIPOS>BOND
     1     1     2 1   
     2     1     4 1   
     3     1    10 1   
     4     1    19 1   
     5     2     3 1   
     6     2     9 1   
     7     2    20 1   
     8     3     6 1   
     9     3    21 1   
    10     3    22 1   
    11     4    11 1   
    12     4    12 1   
    13     4    23 1   
    14     5     6 1   
    15     6     7 1   
    16     6     8 1   
    17     9    24 1   
    18    10    25 1   
    19    11    26 1   
    20    12    13 1   
    21    12    27 1   
    22    12    30 1   
    23    13    14 1   
    24    13    28 1   
    25    13    29 1   
    26    14    15 1   
    27    15    16 1   
    28    15    17 1   
    29    15    18 1   
    30    30    31 1   
@<TRIPOS>SUBSTRUCTURE
     1 U8W         1 TEMP              0 ****  ****    0 ROOT
