@<TRIPOS>MOLECULE
U8X
   27    28     1     0     0
SMALL
No Charge or Current Charge


@<TRIPOS>ATOM
      1 C13         11.6910   -12.5520     2.1810 cc         1 U8X       0.247900
      2 C15         14.3030   -17.7930     1.4260 ca         1 U8X      -0.107000
      3 C02         14.3950   -19.7990     0.0520 ca         1 U8X       0.118100
      4 C03         14.5590   -19.0030    -1.0900 ca         1 U8X      -0.149000
      5 C04         14.5950   -17.6010    -0.9800 ca         1 U8X      -0.107000
      6 C05         14.4640   -16.9830     0.2850 ca         1 U8X      -0.060000
      7 C07         14.5580   -14.5030    -0.4080 c          1 U8X       0.587100
      8 C09         14.5830   -13.1360     0.2690 c3         1 U8X      -0.002400
      9 C11         12.2350   -12.1380     0.0710 cd         1 U8X      -0.161000
     10 C12         11.2280   -12.0080     0.9770 cc         1 U8X      -0.222000
     11 C16         14.2670   -19.1950     1.3120 ca         1 U8X      -0.149000
     12 N06         14.4930   -15.5730     0.4790 ns         1 U8X      -0.146000
     13 N10         13.2630   -12.7600     0.7880 na         1 U8X       0.133800
     14 N14         12.9200   -13.0190     2.1090 nd         1 U8X      -0.515800
     15 O08         14.5880   -14.6170    -1.6290 o          1 U8X      -0.549100
     16 H1          11.1570   -12.6200     3.1200 h4         1 U8X       0.038100
     17 H2          14.2030   -17.3360     2.4090 ha         1 U8X       0.129500
     18 H3          14.6600   -19.4720    -2.0660 ha         1 U8X       0.123500
     19 H4          14.7290   -17.0190    -1.8860 ha         1 U8X       0.129500
     20 H5          15.3070   -13.1620     1.0910 h1         1 U8X       0.080700
     21 H6          14.9100   -12.3900    -0.4630 h1         1 U8X       0.080700
     22 H7          12.3110   -11.8560    -0.9740 h4         1 U8X       0.151000
     23 H8          10.2460   -11.5720     0.8200 ha         1 U8X       0.146000
     24 H9          14.1400   -19.8020     2.2060 ha         1 U8X       0.123500
     25 H10         14.4500   -15.2960     1.4520 hn         1 U8X       0.147000
     26 H11         14.2420   -21.5480     0.8230 ho         1 U8X       0.463000
     27 O01         14.3620   -21.1570    -0.0690 oh         1 U8X      -0.531100
@<TRIPOS>BOND
     1     1    10 1   
     2     1    14 2   
     3     1    16 1   
     4     2     6 ar  
     5     2    11 ar  
     6     2    17 1   
     7     3     4 ar  
     8     3    11 ar  
     9     3    27 1   
    10     4     5 ar  
    11     4    18 1   
    12     5     6 ar  
    13     5    19 1   
    14     6    12 1   
    15     7     8 1   
    16     7    12 1   
    17     7    15 2   
    18     8    13 1   
    19     8    20 1   
    20     8    21 1   
    21     9    10 2   
    22     9    13 1   
    23     9    22 1   
    24    10    23 1   
    25    11    24 1   
    26    12    25 1   
    27    13    14 1   
    28    26    27 1   
@<TRIPOS>SUBSTRUCTURE
     1 U8X         1 TEMP              0 ****  ****    0 ROOT
