@<TRIPOS>MOLECULE
U8X
   27    28     1     0     0
SMALL
abcg2


@<TRIPOS>ATOM
      1 C13         11.0390   -11.5910     1.0130 cc         1 U8X       0.247900
      2 C15         15.4920   -18.0470     1.0980 ca         1 U8X      -0.107000
      3 C02         14.7900   -19.9250    -0.2330 ca         1 U8X       0.118100
      4 C03         13.8040   -19.1230    -0.7970 ca         1 U8X      -0.149000
      5 C04         13.6600   -17.7960    -0.4240 ca         1 U8X      -0.107000
      6 C05         14.5060   -17.2380     0.5340 ca         1 U8X      -0.060000
      7 C07         13.5270   -14.9570     0.6840 c          1 U8X       0.587100
      8 C09         13.8250   -13.6250     1.3730 c3         1 U8X      -0.002400
      9 C11         12.9520   -11.7750    -0.0410 cd         1 U8X      -0.161000
     10 C12         11.7710   -11.0730    -0.0690 cc         1 U8X      -0.222000
     11 C16         15.6370   -19.3720     0.7230 ca         1 U8X      -0.149000
     12 N06         14.4480   -15.9030     0.9670 ns         1 U8X      -0.146000
     13 N10         12.8750   -12.6190     1.0060 na         1 U8X       0.133800
     14 N14         11.7140   -12.5280     1.6500 nd         1 U8X      -0.515800
     15 O08         12.5580   -15.1070    -0.0320 o          1 U8X      -0.549100
     16 H1          10.0530   -11.3070     1.3500 h4         1 U8X       0.038100
     17 H2          16.1620   -17.6400     1.8460 ha         1 U8X       0.129500
     18 H3          13.1390   -19.5390    -1.5440 ha         1 U8X       0.123500
     19 H4          12.8860   -17.2080    -0.8890 ha         1 U8X       0.129500
     20 H5          13.8050   -13.7520     2.4570 h1         1 U8X       0.080700
     21 H6          14.8280   -13.2840     1.1080 h1         1 U8X       0.080700
     22 H7          13.8270   -11.7310    -0.6690 h4         1 U8X       0.151000
     23 H8          11.4830   -10.3000    -0.7610 ha         1 U8X       0.146000
     24 H9          16.4160   -19.9700     1.1810 ha         1 U8X       0.123500
     25 H10         15.1940   -15.6280     1.5900 hn         1 U8X       0.147000
     26 H11         15.5870   -21.6630    -0.1720 ho         1 U8X       0.463000
     27 O01         14.8780   -21.2090    -0.6410 oh         1 U8X      -0.531100
@<TRIPOS>BOND
     1     1    10 1   
     2     1    14 2   
     3     1    16 1   
     4     2     6 ar  
     5     2    11 ar  
     6     2    17 1   
     7     3     4 ar  
     8     3    11 ar  
     9     3    27 1   
    10     4     5 ar  
    11     4    18 1   
    12     5     6 ar  
    13     5    19 1   
    14     6    12 1   
    15     7     8 1   
    16     7    12 1   
    17     7    15 2   
    18     8    13 1   
    19     8    20 1   
    20     8    21 1   
    21     9    10 2   
    22     9    13 1   
    23     9    22 1   
    24    10    23 1   
    25    11    24 1   
    26    12    25 1   
    27    13    14 1   
    28    26    27 1   
@<TRIPOS>SUBSTRUCTURE
     1 U8X         1 TEMP              0 ****  ****    0 ROOT
