@<TRIPOS>MOLECULE
U8Y
   45    47     1     0     0
SMALL
abcg2


@<TRIPOS>ATOM
      1 C4         -28.4940     5.2720    55.7870 ca         1 U8Y       0.395900
      2 C14        -33.3920     5.9820    60.0390 ca         1 U8Y      -0.119000
      3 C5         -27.9840     4.3680    57.8150 ca         1 U8Y       0.414900
      4 C6         -28.2230     5.6130    58.4470 ca         1 U8Y      -0.287300
      5 C11        -31.2290     3.9370    62.2510 ca         1 U8Y      -0.102000
      6 C7         -28.0670     5.7500    59.9390 c3         1 U8Y       0.046200
      7 C8         -29.1760     5.0990    60.7470 ca         1 U8Y      -0.096300
      8 C9         -28.8840     4.3860    61.9090 ca         1 U8Y      -0.140000
      9 C10        -29.9070     3.8080    62.6540 ca         1 U8Y      -0.115000
     10 C12        -31.5490     4.6490    61.0890 cp         1 U8Y       0.012000
     11 C13        -32.9550     4.7990    60.6470 cp         1 U8Y      -0.091000
     12 N1         -28.7560     6.4860    56.2790 nb         1 U8Y      -0.287000
     13 N2         -28.6710     5.0910    54.4430 nv         1 U8Y      -1.050900
     14 C3         -28.6220     6.6450    57.6090 ca         1 U8Y       0.190300
     15 N3         -28.1120     4.2020    56.4930 nb         1 U8Y      -0.325000
     16 C1         -27.6350     8.9090    58.1050 c3         1 U8Y      -0.083100
     17 C15        -34.7120     6.1170    59.6260 ca         1 U8Y      -0.149000
     18 C16        -35.6150     5.0760    59.8110 ca         1 U8Y      -0.075000
     19 C17        -35.2050     3.8870    60.4140 ca         1 U8Y      -0.134600
     20 C18        -36.1890     2.7330    60.6130 c          1 U8Y       0.706600
     21 C19        -33.8790     3.7650    60.8260 ca         1 U8Y      -0.067000
     22 C2         -28.8990     8.0380    58.1120 c3         1 U8Y      -0.137700
     23 C20        -30.5060     5.2180    60.3510 ca         1 U8Y      -0.100000
     24 N4         -27.6430     3.2630    58.5270 nv         1 U8Y      -1.060900
     25 O1         -35.7590     1.7070    61.1980 o          1 U8Y      -0.722500
     26 O2         -37.3570     2.9000    60.1760 o          1 U8Y      -0.722500
     27 H1         -32.7020     6.8050    59.9070 ha         1 U8Y       0.085000
     28 H2         -32.0180     3.4980    62.8470 ha         1 U8Y       0.128000
     29 H3         -27.1090     5.3280    60.2580 hc         1 U8Y       0.038700
     30 H4         -28.0160     6.8060    60.2070 hc         1 U8Y       0.038700
     31 H5         -27.8530     4.2770    62.2250 ha         1 U8Y       0.089000
     32 H6         -29.6710     3.2550    63.5550 ha         1 U8Y       0.102000
     33 H7         -28.6980     5.9220    53.8740 hn         1 U8Y       0.478500
     34 H8         -28.2360     4.2820    54.0290 hn         1 U8Y       0.478500
     35 H9         -27.8680     9.9240    58.4320 hc         1 U8Y       0.032700
     36 H10        -26.8730     8.5010    58.7730 hc         1 U8Y       0.032700
     37 H11        -27.2110     8.9610    57.1010 hc         1 U8Y       0.032700
     38 H12        -35.0370     7.0420    59.1650 ha         1 U8Y       0.088000
     39 H13        -36.6430     5.1730    59.4910 ha         1 U8Y       0.129000
     40 H14        -33.5700     2.8320    61.2770 ha         1 U8Y       0.130000
     41 H15        -29.6490     8.4820    57.4560 hc         1 U8Y       0.062700
     42 H16        -29.3220     8.0100    59.1160 hc         1 U8Y       0.062700
     43 H17        -30.7340     5.7440    59.4330 ha         1 U8Y       0.118000
     44 H18        -27.3120     2.4640    58.0110 hn         1 U8Y       0.486500
     45 H19        -27.3260     3.3490    59.4770 hn         1 U8Y       0.486500
@<TRIPOS>BOND
     1     1    12 ar  
     2     1    13 1   
     3     1    15 ar  
     4     2    11 ar  
     5     2    17 ar  
     6     2    27 1   
     7     3     4 ar  
     8     3    15 ar  
     9     3    24 1   
    10     4     6 1   
    11     4    14 ar  
    12     5     9 ar  
    13     5    10 ar  
    14     5    28 1   
    15     6     7 1   
    16     6    29 1   
    17     6    30 1   
    18     7     8 ar  
    19     7    23 ar  
    20     8     9 ar  
    21     8    31 1   
    22     9    32 1   
    23    10    11 1   
    24    10    23 ar  
    25    11    21 ar  
    26    12    14 ar  
    27    13    33 1   
    28    13    34 1   
    29    14    22 1   
    30    16    22 1   
    31    16    35 1   
    32    16    36 1   
    33    16    37 1   
    34    17    18 ar  
    35    17    38 1   
    36    18    19 ar  
    37    18    39 1   
    38    19    20 1   
    39    19    21 ar  
    40    20    25 1   
    41    20    26 1   
    42    21    40 1   
    43    22    41 1   
    44    22    42 1   
    45    23    43 1   
    46    24    44 1   
    47    24    45 1   
@<TRIPOS>SUBSTRUCTURE
     1 U8Y         1 TEMP              0 ****  ****    0 ROOT
