@<TRIPOS>MOLECULE
U8Y
   45    47     1     0     0
SMALL
No Charge or Current Charge


@<TRIPOS>ATOM
      1 C4         -28.3040     5.1450    55.8030 ca         1 U8Y       0.395900
      2 C14        -33.4550     6.0800    60.2540 ca         1 U8Y      -0.119000
      3 C5         -27.8370     4.3840    57.8760 ca         1 U8Y       0.414900
      4 C6         -28.1640     5.6350    58.4330 ca         1 U8Y      -0.287300
      5 C11        -31.1660     3.7700    62.1380 ca         1 U8Y      -0.102000
      6 C7         -28.0640     5.8760    59.9470 c3         1 U8Y       0.046200
      7 C8         -29.1520     5.1370    60.7210 ca         1 U8Y      -0.096300
      8 C9         -28.8120     4.2750    61.7810 ca         1 U8Y      -0.140000
      9 C10        -29.8160     3.5940    62.4860 ca         1 U8Y      -0.115000
     10 C12        -31.5410     4.6320    61.0770 cp         1 U8Y       0.012000
     11 C13        -32.9790     4.8240    60.7040 cp         1 U8Y      -0.091000
     12 N1         -28.6490     6.3760    56.1930 nb         1 U8Y      -0.287000
     13 N2         -28.3690     4.8990    54.4740 nv         1 U8Y      -1.050900
     14 C3         -28.5840     6.6330    57.5160 ca         1 U8Y       0.190300
     15 N3         -27.9020     4.1290    56.5670 nb         1 U8Y      -0.325000
     16 C1         -27.7790     8.9970    58.0560 c3         1 U8Y      -0.083100
     17 C15        -34.8010     6.2580    59.9040 ca         1 U8Y      -0.149000
     18 C16        -35.7040     5.1870    59.9950 ca         1 U8Y      -0.075000
     19 C17        -35.2700     3.9170    60.4390 ca         1 U8Y      -0.134600
     20 C18        -36.2430     2.7530    60.5350 c          1 U8Y       0.706600
     21 C19        -33.9080     3.7540    60.7880 ca         1 U8Y      -0.067000
     22 C2         -28.9880     8.0490    57.9210 c3         1 U8Y      -0.137700
     23 C20        -30.5080     5.3090    60.3810 ca         1 U8Y      -0.100000
     24 N4         -27.4440     3.3290    58.6310 nv         1 U8Y      -1.060900
     25 O1         -35.8300     1.6750    60.9380 o          1 U8Y      -0.722500
     26 O2         -37.4080     2.9350    60.2090 o          1 U8Y      -0.722500
     27 H1         -32.7780     6.9280    60.1870 ha         1 U8Y       0.085000
     28 H2         -31.9280     3.2440    62.7060 ha         1 U8Y       0.128000
     29 H3         -27.0720     5.5610    60.2950 hc         1 U8Y       0.038700
     30 H4         -28.1100     6.9400    60.1980 hc         1 U8Y       0.038700
     31 H5         -27.7710     4.1340    62.0630 ha         1 U8Y       0.089000
     32 H6         -29.5500     2.9320    63.3070 ha         1 U8Y       0.102000
     33 H7         -28.4560     5.6890    53.8410 hn         1 U8Y       0.478500
     34 H8         -27.9160     4.0640    54.1120 hn         1 U8Y       0.478500
     35 H9         -28.1090    10.0000    58.3510 hc         1 U8Y       0.032700
     36 H10        -27.0750     8.6310    58.8130 hc         1 U8Y       0.032700
     37 H11        -27.2450     9.0790    57.1020 hc         1 U8Y       0.032700
     38 H12        -35.1480     7.2310    59.5640 ha         1 U8Y       0.088000
     39 H13        -36.7440     5.3480    59.7190 ha         1 U8Y       0.129000
     40 H14        -33.5580     2.7780    61.1160 ha         1 U8Y       0.130000
     41 H15        -29.6760     8.4710    57.1770 hc         1 U8Y       0.062700
     42 H16        -29.5530     8.0400    58.8600 hc         1 U8Y       0.062700
     43 H17        -30.7660     5.9650    59.5540 ha         1 U8Y       0.118000
     44 H18        -27.4510     2.4140    58.1910 hn         1 U8Y       0.486500
     45 H19        -27.6850     3.3520    59.6180 hn         1 U8Y       0.486500
@<TRIPOS>BOND
     1     1    12 ar  
     2     1    13 1   
     3     1    15 ar  
     4     2    11 ar  
     5     2    17 ar  
     6     2    27 1   
     7     3     4 ar  
     8     3    15 ar  
     9     3    24 1   
    10     4     6 1   
    11     4    14 ar  
    12     5     9 ar  
    13     5    10 ar  
    14     5    28 1   
    15     6     7 1   
    16     6    29 1   
    17     6    30 1   
    18     7     8 ar  
    19     7    23 ar  
    20     8     9 ar  
    21     8    31 1   
    22     9    32 1   
    23    10    11 1   
    24    10    23 ar  
    25    11    21 ar  
    26    12    14 ar  
    27    13    33 1   
    28    13    34 1   
    29    14    22 1   
    30    16    22 1   
    31    16    35 1   
    32    16    36 1   
    33    16    37 1   
    34    17    18 ar  
    35    17    38 1   
    36    18    19 ar  
    37    18    39 1   
    38    19    20 1   
    39    19    21 ar  
    40    20    25 1   
    41    20    26 1   
    42    21    40 1   
    43    22    41 1   
    44    22    42 1   
    45    23    43 1   
    46    24    44 1   
    47    24    45 1   
@<TRIPOS>SUBSTRUCTURE
     1 U8Y         1 TEMP              0 ****  ****    0 ROOT
