@<TRIPOS>MOLECULE
U8Z
   15    14     1     0     0
SMALL
No Charge or Current Charge


@<TRIPOS>ATOM
      1 C1         -16.5990     3.7430   -36.0340 c2         1 U8Z      -0.207100
      2 C2         -18.1100     3.5500   -35.9220 c3         1 U8Z       0.254800
      3 C3         -15.7090     3.2610   -35.1440 c2         1 U8Z       0.119100
      4 O4         -15.8180     1.2190   -31.8990 o          1 U8Z      -0.905833
      5 O6         -14.1280     0.9750   -33.6250 o          1 U8Z      -0.905833
      6 P1         -15.0520     1.9350   -32.9570 p5         1 U8Z       1.254900
      7 O5         -14.2670     3.0360   -32.3330 o          1 U8Z      -0.905833
      8 O3         -16.0820     2.5440   -34.0420 os         1 U8Z      -0.429500
      9 O2         -18.7110     4.7150   -35.3440 oh         1 U8Z      -0.673000
     10 O1         -16.1980     4.4380   -37.1270 oh         1 U8Z      -0.588100
     11 H1         -18.3350     2.6660   -35.3110 h1         1 U8Z       0.018700
     12 H2         -18.5330     3.3650   -36.9200 h1         1 U8Z       0.018700
     13 H3         -14.6310     3.4030   -35.2410 h4         1 U8Z       0.143000
     14 H6         -19.6740     4.5370   -35.3060 ho         1 U8Z       0.391000
     15 H7         -15.2180     4.5220   -37.1150 ho         1 U8Z       0.417000
@<TRIPOS>BOND
     1     1     2 1   
     2     1     3 2   
     3     1    10 1   
     4     2     9 1   
     5     2    11 1   
     6     2    12 1   
     7     3     8 1   
     8     3    13 1   
     9     4     6 1   
    10     5     6 1   
    11     6     7 1   
    12     6     8 1   
    13     9    14 1   
    14    10    15 1   
@<TRIPOS>SUBSTRUCTURE
     1 U8Z         1 TEMP              0 ****  ****    0 ROOT
