@<TRIPOS>MOLECULE
U8Z
   15    14     1     0     0
SMALL
abcg2


@<TRIPOS>ATOM
      1 C1         -16.5870     3.7830   -35.8920 c2         1 U8Z      -0.207100
      2 C2         -18.0370     3.4480   -35.8470 c3         1 U8Z       0.254800
      3 C3         -15.7240     3.5320   -34.9010 c2         1 U8Z       0.119100
      4 O4         -15.8340     1.4150   -31.8000 o          1 U8Z      -0.905833
      5 O6         -14.8220     0.7820   -34.0880 o          1 U8Z      -0.905833
      6 P1         -14.9970     1.8290   -32.9980 p5         1 U8Z       1.254900
      7 O5         -13.7510     2.6460   -32.6850 o          1 U8Z      -0.905833
      8 O3         -16.0830     3.0010   -33.7240 os         1 U8Z      -0.429500
      9 O2         -18.7980     4.6340   -35.6770 oh         1 U8Z      -0.673000
     10 O1         -16.2250     4.3930   -37.0700 oh         1 U8Z      -0.588100
     11 H1         -18.2130     2.7370   -35.0340 h1         1 U8Z       0.018700
     12 H2         -18.3170     2.9400   -36.7810 h1         1 U8Z       0.018700
     13 H3         -14.6690     3.7860   -35.0330 h4         1 U8Z       0.143000
     14 H6         -19.7280     4.3930   -35.7340 ho         1 U8Z       0.391000
     15 H7         -15.2820     4.5900   -37.0560 ho         1 U8Z       0.417000
@<TRIPOS>BOND
     1     1     2 1   
     2     1     3 2   
     3     1    10 1   
     4     2     9 1   
     5     2    11 1   
     6     2    12 1   
     7     3     8 1   
     8     3    13 1   
     9     4     6 1   
    10     5     6 1   
    11     6     7 1   
    12     6     8 1   
    13     9    14 1   
    14    10    15 1   
@<TRIPOS>SUBSTRUCTURE
     1 U8Z         1 TEMP              0 ****  ****    0 ROOT
