@<TRIPOS>MOLECULE
U90
   27    27     1     0     0
SMALL
No Charge or Current Charge


@<TRIPOS>ATOM
      1 C1           3.6000    -6.3390     9.0520 c6         1 U90       0.364300
      2 C2           2.1290    -5.8020     9.2270 c6         1 U90       0.086300
      3 C3           1.3700    -5.9650     7.8640 c6         1 U90       0.142300
      4 C4           2.1570    -5.2510     6.7250 c6         1 U90       0.147300
      5 C5           3.6170    -5.7980     6.6620 c6         1 U90       0.171300
      6 C6           4.4840    -5.0430     5.6010 c3         1 U90       0.168600
      7 O1           3.6280    -7.7410     8.7700 oh         1 U90      -0.679000
      8 O2           2.1010    -4.4170     9.6620 oh         1 U90      -0.692000
      9 O3           0.0020    -5.4690     7.8900 os         1 U90      -0.457000
     10 O4           1.4560    -5.4020     5.4720 oh         1 U90      -0.724000
     11 O5           4.2580    -5.6560     7.9640 os         1 U90      -0.422000
     12 O6           5.8580    -5.4870     5.5560 oh         1 U90      -0.717000
     13 H1           4.1630    -6.1450     9.9790 h2         1 U90       0.064700
     14 H2           1.6310    -6.4290     9.9800 h1         1 U90       0.031700
     15 H3           1.3270    -7.0380     7.6230 h1         1 U90       0.059700
     16 H4           2.2160    -4.1820     6.9810 h1         1 U90       0.071700
     17 H5           3.5950    -6.8610     6.3810 h1         1 U90       0.079700
     18 H6           4.4430    -3.9690     5.8310 h1         1 U90       0.040700
     19 H7           4.0160    -5.1800     4.6160 h1         1 U90       0.040700
     20 H8          -1.9220    -5.6950     8.6760 h1         1 U90       0.033367
     21 H9          -0.9540    -7.1850     8.6290 h1         1 U90       0.033367
     22 H10         -0.6100    -5.9300     9.8470 h1         1 U90       0.033367
     23 H11          3.4100    -8.1940     9.6130 ho         1 U90       0.452000
     24 H12          2.3720    -4.3950    10.6100 ho         1 U90       0.501000
     25 H13          0.5000    -5.2990     5.7020 ho         1 U90       0.522000
     26 H14          6.3240    -4.9140     4.9030 ho         1 U90       0.501000
     27 C7          -0.9110    -6.1020     8.8060 c3         1 U90       0.145900
@<TRIPOS>BOND
     1     1     2 1   
     2     1     7 1   
     3     1    11 1   
     4     1    13 1   
     5     2     3 1   
     6     2     8 1   
     7     2    14 1   
     8     3     4 1   
     9     3     9 1   
    10     3    15 1   
    11     4     5 1   
    12     4    10 1   
    13     4    16 1   
    14     5     6 1   
    15     5    11 1   
    16     5    17 1   
    17     6    12 1   
    18     6    18 1   
    19     6    19 1   
    20     7    23 1   
    21     8    24 1   
    22     9    27 1   
    23    10    25 1   
    24    12    26 1   
    25    20    27 1   
    26    21    27 1   
    27    22    27 1   
@<TRIPOS>SUBSTRUCTURE
     1 U90         1 TEMP              0 ****  ****    0 ROOT
