@<TRIPOS>MOLECULE
U90
   27    27     1     0     0
SMALL
abcg2


@<TRIPOS>ATOM
      1 C1           3.6180    -6.2660     9.0540 c6         1 U90       0.364300
      2 C2           2.1720    -5.7770     9.2520 c6         1 U90       0.086300
      3 C3           1.4090    -5.9210     7.9380 c6         1 U90       0.142300
      4 C4           2.1450    -5.2240     6.8040 c6         1 U90       0.147300
      5 C5           3.5710    -5.7660     6.7050 c6         1 U90       0.171300
      6 C6           4.3930    -5.0090     5.6880 c3         1 U90       0.168600
      7 O1           3.6680    -7.6710     8.8490 oh         1 U90      -0.679000
      8 O2           2.1570    -4.4100     9.6430 oh         1 U90      -0.692000
      9 O3           0.0970    -5.3800     7.9740 os         1 U90      -0.457000
     10 O4           1.4900    -5.4730     5.5640 oh         1 U90      -0.724000
     11 O5           4.2400    -5.6410     7.9700 os         1 U90      -0.422000
     12 O6           5.6070    -5.7230     5.4500 oh         1 U90      -0.717000
     13 H1           4.2150    -5.9860     9.9280 h2         1 U90       0.064700
     14 H2           1.7060    -6.3970    10.0250 h1         1 U90       0.031700
     15 H3           1.3530    -6.9900     7.7010 h1         1 U90       0.059700
     16 H4           2.1780    -4.1470     7.0050 h1         1 U90       0.071700
     17 H5           3.5260    -6.8200     6.4150 h1         1 U90       0.079700
     18 H6           4.6000    -4.0050     6.0740 h1         1 U90       0.040700
     19 H7           3.8120    -4.9180     4.7670 h1         1 U90       0.040700
     20 H8          -1.8260    -5.7280     8.5110 h1         1 U90       0.033367
     21 H9          -0.8630    -7.2050     8.2450 h1         1 U90       0.033367
     22 H10         -0.6380    -6.2440     9.7290 h1         1 U90       0.033367
     23 H11          3.3060    -8.1120     9.6280 ho         1 U90       0.452000
     24 H12          2.5070    -4.3430    10.5410 ho         1 U90       0.501000
     25 H13          0.5480    -5.3090     5.7100 ho         1 U90       0.522000
     26 H14          6.1190    -5.2340     4.7950 ho         1 U90       0.501000
     27 C7          -0.8510    -6.1900     8.6570 c3         1 U90       0.145900
@<TRIPOS>BOND
     1     1     2 1   
     2     1     7 1   
     3     1    11 1   
     4     1    13 1   
     5     2     3 1   
     6     2     8 1   
     7     2    14 1   
     8     3     4 1   
     9     3     9 1   
    10     3    15 1   
    11     4     5 1   
    12     4    10 1   
    13     4    16 1   
    14     5     6 1   
    15     5    11 1   
    16     5    17 1   
    17     6    12 1   
    18     6    18 1   
    19     6    19 1   
    20     7    23 1   
    21     8    24 1   
    22     9    27 1   
    23    10    25 1   
    24    12    26 1   
    25    20    27 1   
    26    21    27 1   
    27    22    27 1   
@<TRIPOS>SUBSTRUCTURE
     1 U90         1 TEMP              0 ****  ****    0 ROOT
