@<TRIPOS>MOLECULE
U91
   40    42     1     0     0
SMALL
No Charge or Current Charge


@<TRIPOS>ATOM
      1 C01         -4.9730     1.1810     0.9020 cc         1 U91       0.558300
      2 C02         -3.9070     0.4030     0.4610 cc         1 U91      -0.383600
      3 N03         -6.1610     0.7130     0.6350 nd         1 U91      -0.554800
      4 C04         -4.4720    -0.6850    -0.1600 cd         1 U91      -0.046300
      5 N05         -5.8590    -0.4650    -0.0350 na         1 U91       0.145800
      6 C06         -6.9390    -1.3340    -0.5310 c3         1 U91       0.071900
      7 O07         -4.7920     2.3270     1.5550 oh         1 U91      -0.627300
      8 C08         -3.8530    -1.8840    -0.8460 c3         1 U91      -0.051800
      9 C09         -2.4930     0.7620     0.6670 c          1 U91       0.675700
     10 O10         -2.1820     1.7880     1.2610 o          1 U91      -0.618100
     11 N11         -1.5730    -0.1470     0.1750 ns         1 U91      -0.148000
     12 C12         -0.1500    -0.1010     0.1270 ca         1 U91      -0.075000
     13 C13          0.5680     1.0680    -0.2130 ca         1 U91       0.133500
     14 C14          0.5710    -1.2820     0.3890 ca         1 U91       0.133500
     15 C15          1.9770     1.0580    -0.2510 ca         1 U91       0.161500
     16 C16          1.9790    -1.2930     0.3560 ca         1 U91       0.161500
     17 C17          2.7140    -0.1200     0.0410 cp         1 U91      -0.073000
     18 C18          4.2110    -0.1310     0.0020 cp         1 U91      -0.050000
     19 C19          4.9160     0.3480    -1.1300 ca         1 U91      -0.078500
     20 C20          4.9640    -0.6220     1.0970 ca         1 U91      -0.078500
     21 C21          6.3210     0.3370    -1.1650 ca         1 U91      -0.111500
     22 C22          6.3690    -0.6330     1.0630 ca         1 U91      -0.111500
     23 C23          7.0490    -0.1530    -0.0690 ca         1 U91      -0.095000
     24 F24         -0.0870     2.2010    -0.5610 f          1 U91      -0.143500
     25 F25          2.6290     2.2030    -0.5630 f          1 U91      -0.144000
     26 F26          2.6300    -2.4530     0.6070 f          1 U91      -0.144000
     27 F27         -0.0990    -2.4220     0.6870 f          1 U91      -0.143500
     28 H2          -7.9150    -0.9060    -0.2740 h1         1 U91       0.061700
     29 H3          -6.8610    -1.4280    -1.6200 h1         1 U91       0.061700
     30 H4          -6.8490    -2.3260    -0.0720 h1         1 U91       0.061700
     31 H5          -4.6090    -2.5590    -1.2640 hc         1 U91       0.060700
     32 H6          -3.2080    -1.5740    -1.6770 hc         1 U91       0.060700
     33 H7          -3.2510    -2.4730    -0.1440 hc         1 U91       0.060700
     34 H8          -1.9790    -0.9880    -0.2100 hn         1 U91       0.168000
     35 H9           4.3670     0.7230    -1.9900 ha         1 U91       0.119000
     36 H10          4.4520    -0.9900     1.9840 ha         1 U91       0.119000
     37 H11          6.8450     0.7080    -2.0440 ha         1 U91       0.117500
     38 H12          6.9310    -1.0120     1.9140 ha         1 U91       0.117500
     39 H13          8.1360    -0.1610    -0.0960 ha         1 U91       0.115000
     40 H1          -3.8070     2.3970     1.5990 ho         1 U91       0.512000
@<TRIPOS>BOND
     1     1     2 1   
     2     1     3 2   
     3     1     7 1   
     4     2     4 2   
     5     2     9 1   
     6     3     5 1   
     7     4     5 1   
     8     4     8 1   
     9     5     6 1   
    10     6    28 1   
    11     6    29 1   
    12     6    30 1   
    13     7    40 1   
    14     8    31 1   
    15     8    32 1   
    16     8    33 1   
    17     9    10 2   
    18     9    11 1   
    19    11    12 1   
    20    11    34 1   
    21    12    13 ar  
    22    12    14 ar  
    23    13    15 ar  
    24    13    24 1   
    25    14    16 ar  
    26    14    27 1   
    27    15    17 ar  
    28    15    25 1   
    29    16    17 ar  
    30    16    26 1   
    31    17    18 1   
    32    18    19 ar  
    33    18    20 ar  
    34    19    21 ar  
    35    19    35 1   
    36    20    22 ar  
    37    20    36 1   
    38    21    23 ar  
    39    21    37 1   
    40    22    23 ar  
    41    22    38 1   
    42    23    39 1   
@<TRIPOS>SUBSTRUCTURE
     1 U91         1 TEMP              0 ****  ****    0 ROOT
