@<TRIPOS>MOLECULE
U91
   40    42     1     0     0
SMALL
bcc


@<TRIPOS>ATOM
      1 C01         -4.6390     0.9520     1.1970 cc         1 U91       0.623600
      2 C02         -3.7310     0.1840     0.4270 cc         1 U91      -0.448900
      3 N03         -5.8770     0.6000     0.9830 nd         1 U91      -0.554800
      4 C04         -4.5520    -0.6790    -0.3040 cd         1 U91       0.004400
      5 N05         -5.8010    -0.3930     0.0690 na         1 U91       0.124400
      6 C06         -7.0450    -0.9850    -0.3630 c3         1 U91       0.042600
      7 O07         -4.3460     1.9250     2.0510 oh         1 U91      -0.588300
      8 C08         -4.1890    -1.7110    -1.3110 c3         1 U91      -0.051800
      9 C09         -2.3000     0.3840     0.5110 c          1 U91       0.742700
     10 O10         -1.8360     1.3120     1.1720 o          1 U91      -0.618100
     11 N11         -1.4830    -0.4850    -0.1470 ns         1 U91      -0.474100
     12 C12         -0.0920    -0.3710    -0.0870 ca         1 U91       0.017600
     13 C13          0.5690     0.7330    -0.6060 ca         1 U91       0.098400
     14 C14          0.6770    -1.3760     0.4810 ca         1 U91       0.098400
     15 C15          1.9450     0.8270    -0.5390 ca         1 U91       0.126400
     16 C16          2.0540    -1.2840     0.5190 ca         1 U91       0.126400
     17 C17          2.7220    -0.1770     0.0180 cp         1 U91      -0.073000
     18 C18          4.1960    -0.0750     0.0690 cp         1 U91      -0.050000
     19 C19          4.9350    -0.0290    -1.1100 ca         1 U91      -0.096500
     20 C20          4.8530    -0.0260     1.2960 ca         1 U91      -0.096500
     21 C21          6.3190     0.0660    -1.0610 ca         1 U91      -0.129500
     22 C22          6.2370     0.0720     1.3410 ca         1 U91      -0.129500
     23 C23          6.9710     0.1170     0.1640 ca         1 U91      -0.113000
     24 F24         -0.1250     1.7080    -1.1810 f          1 U91      -0.108400
     25 F25          2.5340     1.9140    -1.0340 f          1 U91      -0.108900
     26 F26          2.7470    -2.2880     1.0540 f          1 U91      -0.108900
     27 F27          0.0740    -2.4480     0.9890 f          1 U91      -0.108400
     28 H2          -7.5740    -1.3930     0.4960 h1         1 U91       0.061700
     29 H3          -7.6670    -0.2320    -0.8430 h1         1 U91       0.061700
     30 H4          -6.8590    -1.7880    -1.0660 h1         1 U91       0.061700
     31 H5          -5.0400    -2.0330    -1.9060 hc         1 U91       0.060700
     32 H6          -3.4470    -1.3210    -2.0070 hc         1 U91       0.060700
     33 H7          -3.7760    -2.6000    -0.8320 hc         1 U91       0.060700
     34 H8          -1.8610    -1.3440    -0.5130 hn         1 U91       0.334500
     35 H9           4.4330    -0.0820    -2.0670 ha         1 U91       0.137000
     36 H10          4.2840    -0.0500     2.2170 ha         1 U91       0.137000
     37 H11          6.8870     0.0980    -1.9810 ha         1 U91       0.135500
     38 H12          6.7400     0.1150     2.2980 ha         1 U91       0.135500
     39 H13          8.0500     0.1900     0.2000 ha         1 U91       0.133000
     40 H1          -3.3790     2.0500     2.0140 ho         1 U91       0.473000
@<TRIPOS>BOND
     1     1     2 1   
     2     1     3 2   
     3     1     7 1   
     4     2     4 2   
     5     2     9 1   
     6     3     5 1   
     7     4     5 1   
     8     4     8 1   
     9     5     6 1   
    10     6    28 1   
    11     6    29 1   
    12     6    30 1   
    13     7    40 1   
    14     8    31 1   
    15     8    32 1   
    16     8    33 1   
    17     9    10 2   
    18     9    11 1   
    19    11    12 1   
    20    11    34 1   
    21    12    13 ar  
    22    12    14 ar  
    23    13    15 ar  
    24    13    24 1   
    25    14    16 ar  
    26    14    27 1   
    27    15    17 ar  
    28    15    25 1   
    29    16    17 ar  
    30    16    26 1   
    31    17    18 1   
    32    18    19 ar  
    33    18    20 ar  
    34    19    21 ar  
    35    19    35 1   
    36    20    22 ar  
    37    20    36 1   
    38    21    23 ar  
    39    21    37 1   
    40    22    23 ar  
    41    22    38 1   
    42    23    39 1   
@<TRIPOS>SUBSTRUCTURE
     1 U91         1 TEMP              0 ****  ****    0 ROOT
