@<TRIPOS>MOLECULE
U93
   60    60     1     0     0
SMALL
abcg2


@<TRIPOS>ATOM
      1 N           -5.2840   -56.2440   -79.0130 n8         1 U93      -0.928200
      2 CA          -3.9940   -56.2390   -78.3450 c3         1 U93       0.059500
      3 C           -4.1000   -55.6720   -76.9490 c          1 U93       0.533900
      4 O           -3.6520   -56.1760   -75.9490 o          1 U93      -0.552100
      5 CB          -2.9710   -55.4130   -79.1270 c3         1 U93      -0.042400
      6 CAF         -2.7100   -55.9500   -80.5280 c3         1 U93      -0.093400
      7 CAG         -1.6320   -55.1570   -81.2560 c3         1 U93      -0.059400
      8 CAH         -1.3750   -55.6270   -82.6810 c3         1 U93       0.208800
      9 CAP         -1.7390   -55.5650   -86.9840 ca         1 U93       0.199300
     10 CAQ         -1.4770   -54.3150   -87.7690 c3         1 U93      -0.090400
     11 CAR         -0.8900   -55.9160   -85.9210 ca         1 U93       0.158100
     12 CAT         -1.1490   -57.0770   -85.1760 ca         1 U93      -0.159300
     13 CAU         -0.2930   -57.4430   -83.9600 c3         1 U93       0.471000
     14 CAV         -2.2600   -57.8440   -85.5460 ca         1 U93      -0.044300
     15 CAW         -2.7260   -59.0690   -84.8040 c3         1 U93       0.279900
     16 CAX         -3.0220   -57.4150   -86.6230 ca         1 U93       0.242900
     17 CAZ          2.0340   -56.9800   -83.0930 c3         1 U93       0.038500
     18 CBA          3.3860   -56.4770   -83.6540 c          1 U93       0.751000
     19 CBC          2.2110   -58.3670   -82.4750 c3         1 U93       0.236600
     20 NAI         -0.8090   -56.9580   -82.7120 n7         1 U93      -0.896400
     21 NAO         -2.7790   -56.3110   -87.3190 nb         1 U93      -0.720000
     22 NAY          1.0800   -56.9580   -84.2040 n7         1 U93      -0.898400
     23 OAN         -3.5760   -58.6820   -83.7600 os         1 U93      -0.588400
     24 OBB          3.8160   -57.0970   -84.6500 o          1 U93      -0.781000
     25 OBD          3.2240   -58.3080   -81.5160 os         1 U93      -0.589400
     26 OBI          3.9270   -55.5110   -83.0840 o          1 U93      -0.781000
     27 PAJ         -3.5430   -59.6120   -82.3240 p5         1 U93       1.249900
     28 PBE          3.8450   -59.7770   -80.8850 p5         1 U93       1.299900
     29 H1          -5.9580   -56.7880   -78.4900 hn         1 U93       0.367000
     30 H2          -5.6540   -55.3020   -79.0810 hn         1 U93       0.367000
     31 H4          -3.6340   -57.2700   -78.2710 h1         1 U93       0.138700
     32 H5          -4.6540   -54.7120   -76.9050 h4         1 U93      -0.085800
     33 H6          -2.0320   -55.3980   -78.5650 hc         1 U93       0.007700
     34 H7          -3.3120   -54.3720   -79.1810 hc         1 U93       0.007700
     35 H8          -3.6330   -55.9230   -81.1130 hc         1 U93       0.106700
     36 H9          -2.4250   -57.0030   -80.4610 hc         1 U93       0.106700
     37 H10         -0.6940   -55.1980   -80.6920 hc         1 U93       0.007700
     38 H11         -1.9250   -54.1030   -81.2900 hc         1 U93       0.007700
     39 H12         -0.6730   -54.9290   -83.1430 h1         1 U93       0.000700
     40 H13         -2.3120   -55.5440   -83.2570 h1         1 U93       0.000700
     41 H14         -2.2160   -54.2120   -88.5610 hc         1 U93       0.006033
     42 H15         -1.5280   -53.4240   -87.1390 hc         1 U93       0.006033
     43 H16         -0.4850   -54.3210   -88.2240 hc         1 U93       0.006033
     44 H17         -0.2840   -58.5320   -83.8650 h2         1 U93       0.092700
     45 H18         -3.2520   -59.7190   -85.5170 h1         1 U93       0.003700
     46 H19         -1.8660   -59.6510   -84.4540 h1         1 U93       0.003700
     47 H20         -3.8810   -58.0010   -86.9370 h4         1 U93      -0.017900
     48 H21          1.6750   -56.2910   -82.3270 h1         1 U93       0.051700
     49 H22          1.2580   -58.6990   -82.0370 h1         1 U93       0.002200
     50 H23          2.4470   -59.0780   -83.2820 h1         1 U93       0.002200
     51 H24         -1.4230   -57.6750   -82.3140 hn         1 U93       0.537000
     52 H26          1.4830   -57.5110   -84.9560 hn         1 U93       0.419000
     53 H30          0.7230   -55.6270   -85.0040 ho         1 U93       0.556000
     54 OAS          0.1400   -55.1030   -85.6580 oh         1 U93      -0.636100
     55 OAK         -3.7040   -61.0600   -82.7720 o          1 U93      -0.908167
     56 OAL         -2.1620   -59.3090   -81.7170 o          1 U93      -0.908167
     57 OAM         -4.7190   -59.0180   -81.5640 o          1 U93      -0.908167
     58 OBF          4.8380   -59.2440   -79.8580 o          1 U93      -0.949500
     59 OBG          2.6300   -60.4970   -80.3040 o          1 U93      -0.949500
     60 OBH          4.4790   -60.4850   -82.0810 o          1 U93      -0.949500
@<TRIPOS>BOND
     1     1     2 1   
     2     1    29 1   
     3     1    30 1   
     4     2     3 1   
     5     2     5 1   
     6     2    31 1   
     7     3     4 2   
     8     3    32 1   
     9     5     6 1   
    10     5    33 1   
    11     5    34 1   
    12     6     7 1   
    13     6    35 1   
    14     6    36 1   
    15     7     8 1   
    16     7    37 1   
    17     7    38 1   
    18     8    20 1   
    19     8    39 1   
    20     8    40 1   
    21     9    10 1   
    22     9    11 ar  
    23     9    21 ar  
    24    10    41 1   
    25    10    42 1   
    26    10    43 1   
    27    11    12 ar  
    28    11    54 1   
    29    12    13 1   
    30    12    14 ar  
    31    13    20 1   
    32    13    22 1   
    33    13    44 1   
    34    14    15 1   
    35    14    16 ar  
    36    15    23 1   
    37    15    45 1   
    38    15    46 1   
    39    16    21 ar  
    40    16    47 1   
    41    17    18 1   
    42    17    19 1   
    43    17    22 1   
    44    17    48 1   
    45    18    24 1   
    46    18    26 1   
    47    19    25 1   
    48    19    49 1   
    49    19    50 1   
    50    20    51 1   
    51    22    52 1   
    52    23    27 1   
    53    25    28 1   
    54    27    55 1   
    55    27    56 1   
    56    27    57 1   
    57    28    58 1   
    58    28    59 1   
    59    28    60 1   
    60    53    54 1   
@<TRIPOS>SUBSTRUCTURE
     1 U93         1 TEMP              0 ****  ****    0 ROOT
