@<TRIPOS>MOLECULE
U93
   60    60     1     0     0
SMALL
No Charge or Current Charge


@<TRIPOS>ATOM
      1 N           -5.4870   -55.6200   -78.8740 n8         1 U93      -0.928200
      2 CA          -4.1550   -55.9310   -78.2420 c3         1 U93       0.059500
      3 C           -4.0520   -55.5650   -76.7300 c          1 U93       0.533900
      4 O           -4.2950   -56.3510   -75.8190 o          1 U93      -0.552100
      5 CB          -3.0010   -55.2700   -79.0410 c3         1 U93      -0.042400
      6 CAF         -2.7960   -55.8440   -80.4650 c3         1 U93      -0.093400
      7 CAG         -1.6720   -55.1200   -81.2420 c3         1 U93      -0.059400
      8 CAH         -1.4450   -55.6210   -82.6880 c3         1 U93       0.208800
      9 CAP         -1.8570   -55.6120   -87.0340 ca         1 U93       0.199300
     10 CAQ         -1.7120   -54.3240   -87.8440 c3         1 U93      -0.090400
     11 CAR         -1.0040   -55.8930   -85.9300 ca         1 U93       0.158100
     12 CAT         -1.1680   -57.1000   -85.1990 ca         1 U93      -0.159300
     13 CAU         -0.2780   -57.4490   -83.9810 c3         1 U93       0.471000
     14 CAV         -2.2010   -57.9760   -85.6400 ca         1 U93      -0.044300
     15 CAW         -2.5170   -59.3140   -84.9780 c3         1 U93       0.279900
     16 CAX         -2.9910   -57.6060   -86.7480 ca         1 U93       0.242900
     17 CAZ          2.0650   -57.0360   -82.9520 c3         1 U93       0.038500
     18 CBA          3.4520   -56.3370   -83.2300 c          1 U93       0.751000
     19 CBC          2.3220   -58.5330   -82.5970 c3         1 U93       0.236600
     20 NAI         -0.7920   -56.9410   -82.7220 n7         1 U93      -0.896400
     21 NAO         -2.8360   -56.4560   -87.4400 nb         1 U93      -0.720000
     22 NAY          1.0660   -56.8680   -84.1000 n7         1 U93      -0.898400
     23 OAN         -3.6010   -59.1340   -84.0640 os         1 U93      -0.588400
     24 OBB          4.0470   -56.6080   -84.2700 o          1 U93      -0.781000
     25 OBD          3.1730   -58.6140   -81.4440 os         1 U93      -0.589400
     26 OBI          3.8060   -55.4160   -82.5010 o          1 U93      -0.781000
     27 PAJ         -3.4700   -59.7390   -82.5850 p5         1 U93       1.249900
     28 PBE          3.9680   -59.9810   -81.1450 p5         1 U93       1.299900
     29 H1          -6.2390   -56.0680   -78.3370 hn         1 U93       0.367000
     30 H2          -5.6850   -54.6150   -78.7900 hn         1 U93       0.367000
     31 H4          -3.9980   -57.0210   -78.2750 h1         1 U93       0.138700
     32 H5          -3.7440   -54.5190   -76.5060 h4         1 U93      -0.085800
     33 H6          -2.0660   -55.4010   -78.4810 hc         1 U93       0.007700
     34 H7          -3.1770   -54.1880   -79.1030 hc         1 U93       0.007700
     35 H8          -3.7310   -55.7690   -81.0330 hc         1 U93       0.106700
     36 H9          -2.5570   -56.9100   -80.3870 hc         1 U93       0.106700
     37 H10         -0.7310   -55.1890   -80.6810 hc         1 U93       0.007700
     38 H11         -1.9230   -54.0530   -81.2920 hc         1 U93       0.007700
     39 H12         -0.8020   -54.8790   -83.1760 h1         1 U93       0.000700
     40 H13         -2.4030   -55.6440   -83.2250 h1         1 U93       0.000700
     41 H14         -2.4530   -54.2520   -88.6500 hc         1 U93       0.006033
     42 H15         -1.8390   -53.4430   -87.2030 hc         1 U93       0.006033
     43 H16         -0.7190   -54.2630   -88.3050 hc         1 U93       0.006033
     44 H17         -0.1670   -58.5400   -83.9050 h2         1 U93       0.092700
     45 H18         -2.8100   -60.0310   -85.7570 h1         1 U93       0.003700
     46 H19         -1.6290   -59.7320   -84.4900 h1         1 U93       0.003700
     47 H20         -3.7870   -58.2610   -87.1020 h4         1 U93      -0.017900
     48 H21          1.6660   -56.5550   -82.0500 h1         1 U93       0.051700
     49 H22          1.3660   -59.0280   -82.3820 h1         1 U93       0.002200
     50 H23          2.7750   -59.0370   -83.4610 h1         1 U93       0.002200
     51 H24         -1.4480   -57.6720   -82.3600 hn         1 U93       0.537000
     52 H26          1.5020   -57.3270   -84.9110 hn         1 U93       0.419000
     53 H30          0.4830   -55.5250   -84.8530 ho         1 U93       0.556000
     54 OAS         -0.0160   -55.0200   -85.5690 oh         1 U93      -0.636100
     55 OAK         -3.2380   -61.2070   -82.6690 o          1 U93      -0.908167
     56 OAL         -2.3380   -59.0660   -81.8970 o          1 U93      -0.908167
     57 OAM         -4.7370   -59.4820   -81.8510 o          1 U93      -0.908167
     58 OBF          4.7380   -59.8190   -79.8810 o          1 U93      -0.949500
     59 OBG          3.0060   -61.1050   -80.9860 o          1 U93      -0.949500
     60 OBH          4.9160   -60.2770   -82.2540 o          1 U93      -0.949500
@<TRIPOS>BOND
     1     1     2 1   
     2     1    29 1   
     3     1    30 1   
     4     2     3 1   
     5     2     5 1   
     6     2    31 1   
     7     3     4 2   
     8     3    32 1   
     9     5     6 1   
    10     5    33 1   
    11     5    34 1   
    12     6     7 1   
    13     6    35 1   
    14     6    36 1   
    15     7     8 1   
    16     7    37 1   
    17     7    38 1   
    18     8    20 1   
    19     8    39 1   
    20     8    40 1   
    21     9    10 1   
    22     9    11 ar  
    23     9    21 ar  
    24    10    41 1   
    25    10    42 1   
    26    10    43 1   
    27    11    12 ar  
    28    11    54 1   
    29    12    13 1   
    30    12    14 ar  
    31    13    20 1   
    32    13    22 1   
    33    13    44 1   
    34    14    15 1   
    35    14    16 ar  
    36    15    23 1   
    37    15    45 1   
    38    15    46 1   
    39    16    21 ar  
    40    16    47 1   
    41    17    18 1   
    42    17    19 1   
    43    17    22 1   
    44    17    48 1   
    45    18    24 1   
    46    18    26 1   
    47    19    25 1   
    48    19    49 1   
    49    19    50 1   
    50    20    51 1   
    51    22    52 1   
    52    23    27 1   
    53    25    28 1   
    54    27    55 1   
    55    27    56 1   
    56    27    57 1   
    57    28    58 1   
    58    28    59 1   
    59    28    60 1   
    60    53    54 1   
@<TRIPOS>SUBSTRUCTURE
     1 U93         1 TEMP              0 ****  ****    0 ROOT
