@<TRIPOS>MOLECULE
U94
   49    50     1     0     0
SMALL
No Charge or Current Charge


@<TRIPOS>ATOM
      1 O1          -7.3860    -0.1330    -1.0680 o          1 U94      -0.719500
      2 C2          -7.0270     0.8170    -0.3850 c          1 U94       0.702000
      3 C3          -5.5720     0.7860     0.2110 c3         1 U94       0.026300
      4 O4          -7.7860     1.7200    -0.0520 o          1 U94      -0.719500
      5 C5          -4.5530     1.3220    -0.8420 c3         1 U94       0.164300
      6 C6          -3.0630     1.0050    -0.4900 c3         1 U94       0.078700
      7 C7          -2.0480     1.5760    -1.5180 c3         1 U94      -0.065100
      8 O8          -5.4360     1.5110     1.4720 oh         1 U94      -0.694000
      9 O9          -4.7430     2.7410    -1.0080 oh         1 U94      -0.627000
     10 N10         -2.8420    -0.4460    -0.3360 ns         1 U94      -0.496900
     11 C11         -2.2370    -1.0460     0.7530 c          1 U94       0.609100
     12 O12         -1.8830    -0.4080     1.7380 o          1 U94      -0.565100
     13 C13         -2.0530    -2.5800     0.6090 c3         1 U94       0.065600
     14 O14         -1.4220    -3.1870     1.7630 os         1 U94      -0.412000
     15 C15         -1.2230    -4.6050     1.6570 c3         1 U94       0.144900
     16 C16         -0.6060     1.1760    -1.2180 ca         1 U94      -0.046300
     17 C17          0.0940     1.7880    -0.1640 ca         1 U94      -0.106500
     18 C18          1.4140     1.4060     0.1300 ca         1 U94      -0.090000
     19 C19          2.0710     0.4010    -0.6230 cp         1 U94      -0.065000
     20 C20          1.3510    -0.2040    -1.6850 ca         1 U94      -0.090000
     21 C21          0.0310     0.1780    -1.9780 ca         1 U94      -0.106500
     22 C22          3.4760    -0.0100    -0.3070 cp         1 U94       0.007000
     23 C23          3.9470    -0.0400     1.0300 ca         1 U94      -0.098500
     24 C24          5.2650    -0.4270     1.3250 ca         1 U94       0.125000
     25 C25          6.1420    -0.7930     0.2940 ca         1 U94      -0.109000
     26 C26          5.6960    -0.7700    -1.0360 ca         1 U94       0.125000
     27 C27          4.3790    -0.3840    -1.3340 ca         1 U94      -0.098500
     28 Cl28         6.7930    -1.2220    -2.3340 cl         1 U94      -0.205000
     29 Cl29         5.8160    -0.4590     2.9950 cl         1 U94      -0.205000
     30 H3          -5.3500    -0.2740     0.3880 h1         1 U94       0.037700
     31 H5          -4.7740     0.8180    -1.7920 h1         1 U94       0.035700
     32 H6          -2.8560     1.4890     0.4750 h1         1 U94       0.111700
     33 H7          -2.3300     1.2370    -2.5220 hc         1 U94       0.050700
     34 H7A         -2.1190     2.6700    -1.5330 hc         1 U94       0.050700
     35 HO8         -5.7460     2.4260     1.2750 ho         1 U94       0.478000
     36 HO9         -4.2980     2.9980    -1.8430 ho         1 U94       0.411000
     37 HN10        -3.0960    -1.0550    -1.1050 hn         1 U94       0.297500
     38 H13         -3.0460    -3.0190     0.4400 h1         1 U94       0.029200
     39 H13A        -1.4530    -2.7560    -0.2930 h1         1 U94       0.029200
     40 H15         -2.1820    -5.1250     1.5290 h1         1 U94       0.023700
     41 H15A        -0.5800    -4.8450     0.8000 h1         1 U94       0.023700
     42 H15B        -0.7430    -4.9920     2.5640 h1         1 U94       0.023700
     43 H17         -0.3870     2.5600     0.4330 ha         1 U94       0.117000
     44 H18          1.9340     1.9040     0.9440 ha         1 U94       0.108500
     45 H20          1.8130    -0.9890    -2.2770 ha         1 U94       0.108500
     46 H21         -0.4980    -0.3110    -2.7920 ha         1 U94       0.117000
     47 H23          3.2830     0.2250     1.8470 ha         1 U94       0.139500
     48 H25          7.1600    -1.0920     0.5230 ha         1 U94       0.138000
     49 H27          4.0620    -0.3620    -2.3730 ha         1 U94       0.139500
@<TRIPOS>BOND
     1     1     2 1   
     2     2     3 1   
     3     2     4 1   
     4     3     5 1   
     5     3     8 1   
     6     3    30 1   
     7     5     6 1   
     8     5     9 1   
     9     5    31 1   
    10     6     7 1   
    11     6    10 1   
    12     6    32 1   
    13     7    16 1   
    14     7    33 1   
    15     7    34 1   
    16     8    35 1   
    17     9    36 1   
    18    10    11 1   
    19    10    37 1   
    20    11    12 2   
    21    11    13 1   
    22    13    14 1   
    23    13    38 1   
    24    13    39 1   
    25    14    15 1   
    26    15    40 1   
    27    15    41 1   
    28    15    42 1   
    29    16    17 ar  
    30    16    21 ar  
    31    17    18 ar  
    32    17    43 1   
    33    18    19 ar  
    34    18    44 1   
    35    19    20 ar  
    36    19    22 1   
    37    20    21 ar  
    38    20    45 1   
    39    21    46 1   
    40    22    23 ar  
    41    22    27 ar  
    42    23    24 ar  
    43    23    47 1   
    44    24    25 ar  
    45    24    29 1   
    46    25    26 ar  
    47    25    48 1   
    48    26    27 ar  
    49    26    28 1   
    50    27    49 1   
@<TRIPOS>SUBSTRUCTURE
     1 U94         1 TEMP              0 ****  ****    0 ROOT
