@<TRIPOS>MOLECULE
U94
   49    50     1     0     0
SMALL
abcg2


@<TRIPOS>ATOM
      1 O1          -7.3270     0.7630    -1.0900 o          1 U94      -0.719500
      2 C2          -6.8540     1.2880    -0.0710 c          1 U94       0.702000
      3 C3          -5.4080     0.9100     0.3230 c3         1 U94       0.026300
      4 O4          -7.4120     2.1030     0.6970 o          1 U94      -0.719500
      5 C5          -4.4710     1.2110    -0.8410 c3         1 U94       0.164300
      6 C6          -3.0080     0.8700    -0.5150 c3         1 U94       0.078700
      7 C7          -2.0380     1.3730    -1.5950 c3         1 U94      -0.065100
      8 O8          -5.0410     1.6090     1.4820 oh         1 U94      -0.694000
      9 O9          -4.6150     2.5780    -1.1580 oh         1 U94      -0.627000
     10 N10         -2.8720    -0.5610    -0.3630 ns         1 U94      -0.496900
     11 C11         -2.2550    -1.1730     0.6640 c          1 U94       0.609100
     12 O12         -1.8620    -0.6120     1.6690 o          1 U94      -0.565100
     13 C13         -2.0750    -2.6670     0.4400 c3         1 U94       0.065600
     14 O14         -1.6020    -3.2540     1.6100 os         1 U94      -0.412000
     15 C15         -1.3750    -4.6330     1.4570 c3         1 U94       0.144900
     16 C16         -0.6160     1.0230    -1.2650 ca         1 U94      -0.046300
     17 C17          0.0800     1.7470    -0.2990 ca         1 U94      -0.106500
     18 C18          1.3840     1.4270     0.0340 ca         1 U94      -0.090000
     19 C19          2.0400     0.3660    -0.5930 cp         1 U94      -0.065000
     20 C20          1.3440    -0.3640    -1.5540 ca         1 U94      -0.090000
     21 C21          0.0360    -0.0400    -1.8810 ca         1 U94      -0.106500
     22 C22          3.4390     0.0420    -0.2550 cp         1 U94       0.007000
     23 C23          3.8910     0.1460     1.0600 ca         1 U94      -0.098500
     24 C24          5.2110    -0.1480     1.3570 ca         1 U94       0.125000
     25 C25          6.1100    -0.5510     0.3830 ca         1 U94      -0.109000
     26 C26          5.6410    -0.6530    -0.9180 ca         1 U94       0.125000
     27 C27          4.3300    -0.3630    -1.2490 ca         1 U94      -0.098500
     28 CL28         6.7380    -1.1410    -2.1640 cl         1 U94      -0.205000
     29 CL29         5.7570    -0.0210     2.9940 cl         1 U94      -0.205000
     30 H3          -5.3720    -0.1730     0.5080 h1         1 U94       0.037700
     31 H5          -4.7960     0.5770    -1.6800 h1         1 U94       0.035700
     32 H6          -2.7390     1.3290     0.4370 h1         1 U94       0.111700
     33 H7          -2.3160     0.9410    -2.5620 hc         1 U94       0.050700
     34 H7A         -2.1310     2.4560    -1.6890 hc         1 U94       0.050700
     35 HO8         -5.8240     2.1690     1.6380 ho         1 U94       0.478000
     36 HO9         -4.3300     2.7190    -2.0650 ho         1 U94       0.411000
     37 HN10        -3.1370    -1.1270    -1.1560 hn         1 U94       0.297500
     38 H13         -3.0300    -3.1090     0.1190 h1         1 U94       0.029200
     39 H13A        -1.3740    -2.8060    -0.3970 h1         1 U94       0.029200
     40 H15         -2.2880    -5.1750     1.1840 h1         1 U94       0.023700
     41 H15A        -0.6190    -4.8420     0.6910 h1         1 U94       0.023700
     42 H15B        -1.0160    -5.0200     2.4090 h1         1 U94       0.023700
     43 H17         -0.4030     2.5830     0.1940 ha         1 U94       0.117000
     44 H18          1.9040     2.0290     0.7680 ha         1 U94       0.108500
     45 H20          1.8170    -1.2070    -2.0430 ha         1 U94       0.108500
     46 H21         -0.4840    -0.6280    -2.6290 ha         1 U94       0.117000
     47 H23          3.2130     0.4370     1.8510 ha         1 U94       0.139500
     48 H25          7.1370    -0.7790     0.6280 ha         1 U94       0.138000
     49 H27          4.0060    -0.4290    -2.2790 ha         1 U94       0.139500
@<TRIPOS>BOND
     1     1     2 1   
     2     2     3 1   
     3     2     4 1   
     4     3     5 1   
     5     3     8 1   
     6     3    30 1   
     7     5     6 1   
     8     5     9 1   
     9     5    31 1   
    10     6     7 1   
    11     6    10 1   
    12     6    32 1   
    13     7    16 1   
    14     7    33 1   
    15     7    34 1   
    16     8    35 1   
    17     9    36 1   
    18    10    11 1   
    19    10    37 1   
    20    11    12 2   
    21    11    13 1   
    22    13    14 1   
    23    13    38 1   
    24    13    39 1   
    25    14    15 1   
    26    15    40 1   
    27    15    41 1   
    28    15    42 1   
    29    16    17 ar  
    30    16    21 ar  
    31    17    18 ar  
    32    17    43 1   
    33    18    19 ar  
    34    18    44 1   
    35    19    20 ar  
    36    19    22 1   
    37    20    21 ar  
    38    20    45 1   
    39    21    46 1   
    40    22    23 ar  
    41    22    27 ar  
    42    23    24 ar  
    43    23    47 1   
    44    24    25 ar  
    45    24    29 1   
    46    25    26 ar  
    47    25    48 1   
    48    26    27 ar  
    49    26    28 1   
    50    27    49 1   
@<TRIPOS>SUBSTRUCTURE
     1 U94         1 TEMP              0 ****  ****    0 ROOT
