@<TRIPOS>MOLECULE
U95
   45    48     1     0     0
SMALL
No Charge or Current Charge


@<TRIPOS>ATOM
      1 C4           0.5070   -42.6300   -16.4210 ca         1 U95      -0.197500
      2 C14         -5.4400   -43.8140   -14.8840 ca         1 U95      -0.156300
      3 C5           0.1400   -43.9870   -16.3080 ca         1 U95       0.089100
      4 C6          -1.2530   -43.5840   -14.3170 c3         1 U95       0.244900
      5 C11         -5.0010   -41.0630   -14.3780 ca         1 U95      -0.079000
      6 C7          -2.0960   -44.4220   -13.3950 cc         1 U95      -0.182300
      7 C8          -3.5150   -44.3940   -13.3410 cc         1 U95       0.326500
      8 C9          -4.3730   -43.4080   -14.0210 ca         1 U95      -0.065500
      9 C10         -4.1820   -42.0240   -13.7690 ca         1 U95       0.125000
     10 C12         -6.0350   -41.4590   -15.2330 ca         1 U95      -0.103000
     11 C13         -6.2570   -42.8210   -15.4770 ca         1 U95      -0.068000
     12 N1          -4.0320   -45.2660   -12.4860 nd         1 U95      -0.350300
     13 N2          -0.2240   -46.9140   -11.2200 na         1 U95      -0.092000
     14 C3           1.3680   -42.2150   -17.4520 ca         1 U95      -0.058000
     15 C16         -1.7740   -45.4080   -12.5090 cd         1 U95       0.297500
     16 C17         -0.4580   -45.8910   -12.1500 cd         1 U95      -0.261500
     17 C18          0.7600   -45.4700   -12.6150 cc         1 U95      -0.093000
     18 C19          1.7490   -46.2360   -11.9700 cc         1 U95      -0.190000
     19 C2           1.8790   -43.1450   -18.3880 ca         1 U95      -0.158600
     20 C20          1.1580   -47.1250   -11.1120 cd         1 U95      -0.182000
     21 C21          0.6420   -44.9150   -17.2310 ca         1 U95      -0.197500
     22 C22          1.5040   -44.5030   -18.2630 ca         1 U95      -0.058000
     23 F1          -6.4590   -45.4450   -16.3450 f          1 U95      -0.106000
     24 F2          -6.3620   -45.9340   -14.2380 f          1 U95      -0.106000
     25 F3          -4.5630   -45.9850   -15.4690 f          1 U95      -0.106000
     26 O3          -0.6980   -44.4520   -15.3190 os         1 U95      -0.355100
     27 O4          -2.8960   -45.9440   -11.9430 os         1 U95      -0.090700
     28 Cl1         -3.0010   -41.4430   -12.5890 cl         1 U95      -0.178000
     29 H1           0.1370   -41.8840   -15.7240 ha         1 U95       0.096000
     30 H2          -0.4670   -43.0790   -13.7420 h1         1 U95       0.043200
     31 H3          -1.8660   -42.8130   -14.7990 h1         1 U95       0.043200
     32 H4          -4.8480   -40.0080   -14.1660 ha         1 U95       0.134000
     33 H5          -6.6730   -40.7110   -15.6980 ha         1 U95       0.123000
     34 H6          -7.0760   -43.0960   -16.1390 ha         1 U95       0.135000
     35 H7          -0.9390   -47.4230   -10.7050 hn         1 U95       0.352000
     36 H8           1.6380   -41.1630   -17.5210 ha         1 U95       0.127500
     37 H9           0.9770   -44.6980   -13.3450 ha         1 U95       0.164000
     38 H10          2.8170   -46.1250   -12.1410 ha         1 U95       0.140000
     39 H11          1.5930   -47.8690   -10.4530 h4         1 U95       0.141000
     40 H12          0.3630   -45.9620   -17.1480 ha         1 U95       0.096000
     41 H13          1.8780   -45.2450   -18.9660 ha         1 U95       0.127500
     42 C1           2.8100   -42.6960   -19.5020 c          1 U95       0.715600
     43 O1           3.1100   -41.5120   -19.5730 o          1 U95      -0.722500
     44 O2           3.2280   -43.5330   -20.2890 o          1 U95      -0.722500
     45 C15         -5.7040   -45.2960   -15.2320 c3         1 U95       0.359300
@<TRIPOS>BOND
     1     1     3 ar  
     2     1    14 ar  
     3     1    29 1   
     4     2     8 ar  
     5     2    11 ar  
     6     2    45 1   
     7     3    21 ar  
     8     3    26 1   
     9     4     6 1   
    10     4    26 1   
    11     4    30 1   
    12     4    31 1   
    13     5     9 ar  
    14     5    10 ar  
    15     5    32 1   
    16     6     7 1   
    17     6    15 2   
    18     7     8 1   
    19     7    12 2   
    20     8     9 ar  
    21     9    28 1   
    22    10    11 ar  
    23    10    33 1   
    24    11    34 1   
    25    12    27 1   
    26    13    16 1   
    27    13    20 1   
    28    13    35 1   
    29    14    19 ar  
    30    14    36 1   
    31    15    16 1   
    32    15    27 1   
    33    16    17 2   
    34    17    18 1   
    35    17    37 1   
    36    18    20 2   
    37    18    38 1   
    38    19    22 ar  
    39    19    42 1   
    40    20    39 1   
    41    21    22 ar  
    42    21    40 1   
    43    22    41 1   
    44    23    45 1   
    45    24    45 1   
    46    25    45 1   
    47    42    43 1   
    48    42    44 1   
@<TRIPOS>SUBSTRUCTURE
     1 U95         1 TEMP              0 ****  ****    0 ROOT
