@<TRIPOS>MOLECULE
U95
   45    48     1     0     0
SMALL
abcg2


@<TRIPOS>ATOM
      1 C4           0.5190   -42.6470   -16.4160 ca         1 U95      -0.197500
      2 C14         -5.4230   -43.8050   -14.8600 ca         1 U95      -0.156300
      3 C5           0.0580   -43.9610   -16.4000 ca         1 U95       0.089100
      4 C6          -1.2710   -43.5900   -14.4660 c3         1 U95       0.244900
      5 C11         -5.2240   -41.0990   -14.2430 ca         1 U95      -0.079000
      6 C7          -2.0990   -44.3820   -13.5250 cc         1 U95      -0.182300
      7 C8          -3.4950   -44.3040   -13.2990 cc         1 U95       0.326500
      8 C9          -4.4490   -43.3830   -13.9480 ca         1 U95      -0.065500
      9 C10         -4.3770   -42.0240   -13.6540 ca         1 U95       0.125000
     10 C12         -6.1750   -41.5390   -15.1450 ca         1 U95      -0.103000
     11 C13         -6.2800   -42.8870   -15.4490 ca         1 U95      -0.068000
     12 N1          -3.8850   -45.1200   -12.3650 nd         1 U95      -0.350300
     13 N2          -0.2220   -46.6510   -11.1740 na         1 U95      -0.092000
     14 C3           1.4580   -42.2610   -17.3650 ca         1 U95      -0.058000
     15 C16         -1.6960   -45.3310   -12.6280 cd         1 U95       0.297500
     16 C17         -0.4160   -45.8770   -12.2850 cd         1 U95      -0.261500
     17 C18          0.8100   -45.7400   -12.9120 cc         1 U95      -0.093000
     18 C19          1.7540   -46.4480   -12.1460 cc         1 U95      -0.190000
     19 C2           1.9560   -43.1490   -18.3110 ca         1 U95      -0.158600
     20 C20          1.0800   -46.9990   -11.0780 cd         1 U95      -0.182000
     21 C21          0.5400   -44.8660   -17.3470 ca         1 U95      -0.197500
     22 C22          1.4720   -44.4580   -18.2830 ca         1 U95      -0.058000
     23 F1          -6.3300   -45.4520   -16.2780 f          1 U95      -0.106000
     24 F2          -6.1980   -45.9180   -14.1870 f          1 U95      -0.106000
     25 F3          -4.4210   -45.8750   -15.4020 f          1 U95      -0.106000
     26 O3          -0.8400   -44.4450   -15.5120 os         1 U95      -0.355100
     27 O4          -2.7630   -45.7730   -11.9540 os         1 U95      -0.090700
     28 CL1         -3.2160   -41.4580   -12.5070 cl         1 U95      -0.178000
     29 H1           0.1640   -41.9130   -15.7060 ha         1 U95       0.096000
     30 H2          -0.4100   -43.1680   -13.9350 h1         1 U95       0.043200
     31 H3          -1.8490   -42.7520   -14.8690 h1         1 U95       0.043200
     32 H4          -5.1400   -40.0500   -13.9950 ha         1 U95       0.134000
     33 H5          -6.8410   -40.8270   -15.6110 ha         1 U95       0.123000
     34 H6          -7.0370   -43.2060   -16.1510 ha         1 U95       0.135000
     35 H7          -0.9310   -46.9120   -10.5070 hn         1 U95       0.352000
     36 H8           1.8110   -41.2380   -17.3630 ha         1 U95       0.127500
     37 H9           1.0060   -45.2070   -13.8280 ha         1 U95       0.164000
     38 H10          2.8070   -46.5510   -12.3530 ha         1 U95       0.140000
     39 H11          1.4330   -47.6090   -10.2640 h4         1 U95       0.141000
     40 H12          0.1820   -45.8880   -17.3350 ha         1 U95       0.096000
     41 H13          1.8380   -45.1740   -19.0070 ha         1 U95       0.127500
     42 C1           2.9960   -42.7090   -19.3320 c          1 U95       0.715600
     43 O1           3.3830   -41.5260   -19.2580 o          1 U95      -0.722500
     44 O2           3.3750   -43.5710   -20.1510 o          1 U95      -0.722500
     45 C15         -5.5890   -45.2650   -15.1830 c3         1 U95       0.359300
@<TRIPOS>BOND
     1     1     3 ar  
     2     1    14 ar  
     3     1    29 1   
     4     2     8 ar  
     5     2    11 ar  
     6     2    45 1   
     7     3    21 ar  
     8     3    26 1   
     9     4     6 1   
    10     4    26 1   
    11     4    30 1   
    12     4    31 1   
    13     5     9 ar  
    14     5    10 ar  
    15     5    32 1   
    16     6     7 1   
    17     6    15 2   
    18     7     8 1   
    19     7    12 2   
    20     8     9 ar  
    21     9    28 1   
    22    10    11 ar  
    23    10    33 1   
    24    11    34 1   
    25    12    27 1   
    26    13    16 1   
    27    13    20 1   
    28    13    35 1   
    29    14    19 ar  
    30    14    36 1   
    31    15    16 1   
    32    15    27 1   
    33    16    17 2   
    34    17    18 1   
    35    17    37 1   
    36    18    20 2   
    37    18    38 1   
    38    19    22 ar  
    39    19    42 1   
    40    20    39 1   
    41    21    22 ar  
    42    21    40 1   
    43    22    41 1   
    44    23    45 1   
    45    24    45 1   
    46    25    45 1   
    47    42    43 1   
    48    42    44 1   
@<TRIPOS>SUBSTRUCTURE
     1 U95         1 TEMP              0 ****  ****    0 ROOT
