@<TRIPOS>MOLECULE
U96
   50    55     1     0     0
SMALL
No Charge or Current Charge


@<TRIPOS>ATOM
      1 C1          -1.7060    43.5180    40.8330 ca         1 U96       0.356300
      2 C2          -1.3430    42.1730    41.0300 ca         1 U96      -0.160000
      3 C3          -1.7180    41.5260    42.2200 ca         1 U96      -0.051000
      4 C7          -2.5230    40.8450    46.7190 cc         1 U96      -0.116400
      5 C8          -3.8750    40.5570    46.8430 cd         1 U96      -0.182800
      6 C9          -4.7030    40.8160    45.7100 cd         1 U96       0.239800
      7 C10         -5.2470    41.4340    43.6170 cc         1 U96      -0.156300
      8 C11         -5.3450    41.8600    42.2050 cx         1 U96      -0.072400
      9 C12         -4.7240    41.0100    41.1210 cx         1 U96      -0.117900
     10 C13         -6.2230    41.0680    41.2600 cx         1 U96      -0.117900
     11 C14         -4.1980    41.3420    44.5090 cd         1 U96      -0.016400
     12 C15         -1.7200    40.5460    47.9070 ca         1 U96      -0.060800
     13 C16         -0.5770    39.7140    47.8050 ca         1 U96      -0.068000
     14 C20         -1.3670    41.1480    51.6310 cc         1 U96      -0.195100
     15 C21         -1.2690    40.7640    50.2670 ca         1 U96      -0.150000
     16 C22         -2.0730    41.0850    49.1660 ca         1 U96      -0.039000
     17 C6          -1.9240    41.4190    45.4720 c          1 U96       0.570200
     18 N5          -0.2990    40.5370    52.2770 na         1 U96       0.148500
     19 N4           0.4870    39.7780    51.4030 nc         1 U96      -0.290400
     20 C18         -0.1620    39.9590    50.1800 ca         1 U96      -0.059000
     21 C17          0.2070    39.4160    48.9410 ca         1 U96      -0.086000
     22 N3          -6.3240    40.9740    44.3920 na         1 U96       0.032800
     23 N2          -5.9930    40.5820    45.6830 nc         1 U96      -0.480800
     24 N1          -2.8330    41.6480    44.4130 n          1 U96      -0.186200
     25 C4          -2.4630    42.2500    43.1660 ca         1 U96      -0.012400
     26 C5          -2.7630    43.6020    42.8940 ca         1 U96       0.354900
     27 N           -2.4010    44.2300    41.7470 nb         1 U96      -0.674000
     28 C           -1.3310    44.2520    39.5600 c3         1 U96      -0.144400
     29 H1          -0.7790    41.6390    40.2710 ha         1 U96       0.125000
     30 H2          -1.4450    40.4880    42.4000 ha         1 U96       0.131000
     31 H3          -4.2990    40.1370    47.7490 ha         1 U96       0.205000
     32 H4          -5.3530    42.9400    42.0730 hc         1 U96       0.099700
     33 H5          -4.2240    40.0910    41.4170 hc         1 U96       0.077200
     34 H6          -4.2720    41.5210    40.2740 hc         1 U96       0.077200
     35 H7          -6.7790    41.6190    40.5050 hc         1 U96       0.077200
     36 H8          -6.7230    40.1770    41.6330 hc         1 U96       0.077200
     37 H9          -0.2980    39.2920    46.8420 ha         1 U96       0.118000
     38 H10          0.0340    39.6150    54.1400 h1         1 U96       0.061367
     39 H11          1.0410    41.0590    53.8130 h1         1 U96       0.061367
     40 H12         -0.6890    41.2490    54.2240 h1         1 U96       0.061367
     41 H13         -2.0700    41.7710    52.1720 h4         1 U96       0.225000
     42 H14         -2.9380    41.7340    49.2800 ha         1 U96       0.114000
     43 H15          1.0820    38.7750    48.8560 ha         1 U96       0.127000
     44 H16         -7.2870    40.9070    44.0680 hn         1 U96       0.377000
     45 H17         -3.3160    44.2010    43.6170 h4         1 U96       0.028100
     46 H18         -1.0470    45.2900    39.7660 hc         1 U96       0.051367
     47 H19         -0.4840    43.7710    39.0580 hc         1 U96       0.051367
     48 H20         -2.1730    44.2650    38.8580 hc         1 U96       0.051367
     49 C19          0.0420    40.6200    53.7020 c3         1 U96       0.061900
     50 O           -0.7340    41.6940    45.3620 o          1 U96      -0.525000
@<TRIPOS>BOND
     1     1     2 ar  
     2     1    27 ar  
     3     1    28 1   
     4     2     3 ar  
     5     2    29 1   
     6     3    25 ar  
     7     3    30 1   
     8     4     5 2   
     9     4    12 1   
    10     4    17 1   
    11     5     6 1   
    12     5    31 1   
    13     6    11 1   
    14     6    23 2   
    15     7     8 1   
    16     7    11 2   
    17     7    22 1   
    18     8     9 1   
    19     8    10 1   
    20     8    32 1   
    21     9    10 1   
    22     9    33 1   
    23     9    34 1   
    24    10    35 1   
    25    10    36 1   
    26    11    24 1   
    27    12    13 ar  
    28    12    16 ar  
    29    13    21 ar  
    30    13    37 1   
    31    14    15 2   
    32    14    18 1   
    33    14    41 1   
    34    15    16 ar  
    35    15    20 ar  
    36    16    42 1   
    37    17    24 1   
    38    17    50 2   
    39    18    19 1   
    40    18    49 1   
    41    19    20 2   
    42    20    21 ar  
    43    21    43 1   
    44    22    23 1   
    45    22    44 1   
    46    24    25 1   
    47    25    26 ar  
    48    26    27 ar  
    49    26    45 1   
    50    28    46 1   
    51    28    47 1   
    52    28    48 1   
    53    38    49 1   
    54    39    49 1   
    55    40    49 1   
@<TRIPOS>SUBSTRUCTURE
     1 U96         1 TEMP              0 ****  ****    0 ROOT
