@<TRIPOS>MOLECULE
U96
   50    55     1     0     0
SMALL
abcg2


@<TRIPOS>ATOM
      1 C1          -1.5420    43.4430    41.0220 ca         1 U96       0.356300
      2 C2          -1.1920    42.1160    41.2610 ca         1 U96      -0.160000
      3 C3          -1.6490    41.4880    42.4050 ca         1 U96      -0.051000
      4 C7          -2.7150    40.8150    46.7480 cc         1 U96      -0.116400
      5 C8          -4.0240    40.4760    46.8100 cd         1 U96      -0.182800
      6 C9          -4.8490    40.7110    45.6770 cd         1 U96       0.239800
      7 C10         -5.3430    41.3360    43.6030 cc         1 U96      -0.156300
      8 C11         -5.4600    41.8430    42.2260 cx         1 U96      -0.072400
      9 C12         -4.8070    41.1130    41.0900 cx         1 U96      -0.117900
     10 C13         -6.2940    41.1030    41.2180 cx         1 U96      -0.117900
     11 C14         -4.3020    41.2700    44.5120 cd         1 U96      -0.016400
     12 C15         -1.8190    40.6070    47.9030 ca         1 U96      -0.060800
     13 C16         -0.6190    39.8440    47.7460 ca         1 U96      -0.068000
     14 C20         -1.3210    41.1610    51.5850 cc         1 U96      -0.195100
     15 C21         -1.3170    40.8390    50.2310 ca         1 U96      -0.150000
     16 C22         -2.1650    41.1000    49.1350 ca         1 U96      -0.039000
     17 C6          -2.1310    41.4380    45.5430 c          1 U96       0.570200
     18 N5          -0.2180    40.6070    52.0990 na         1 U96       0.148500
     19 N4           0.5270    39.9470    51.2200 nc         1 U96      -0.290400
     20 C18         -0.1290    40.0770    50.0650 ca         1 U96      -0.059000
     21 C17          0.2130    39.5700    48.7910 ca         1 U96      -0.086000
     22 N3          -6.3990    40.8320    44.2880 na         1 U96       0.032800
     23 N2          -6.1420    40.4430    45.5190 nc         1 U96      -0.480800
     24 N1          -2.9690    41.6180    44.4580 n          1 U96      -0.186200
     25 C4          -2.4380    42.2120    43.2810 ca         1 U96      -0.012400
     26 C5          -2.7280    43.5320    42.9770 ca         1 U96       0.354900
     27 N           -2.2990    44.1310    41.8770 nb         1 U96      -0.674000
     28 C           -1.0880    44.1610    39.7890 c3         1 U96      -0.144400
     29 H1          -0.5750    41.5810    40.5510 ha         1 U96       0.125000
     30 H2          -1.4060    40.4530    42.6080 ha         1 U96       0.131000
     31 H3          -4.4370    40.0180    47.7000 ha         1 U96       0.205000
     32 H4          -5.4710    42.9250    42.1420 hc         1 U96       0.099700
     33 H5          -4.2740    40.2000    41.3260 hc         1 U96       0.077200
     34 H6          -4.3530    41.7100    40.3110 hc         1 U96       0.077200
     35 H7          -6.8770    41.6990    40.5280 hc         1 U96       0.077200
     36 H8          -6.7710    40.1790    41.5190 hc         1 U96       0.077200
     37 H9          -0.3790    39.4520    46.7670 ha         1 U96       0.118000
     38 H10          0.3010    39.6700    53.8860 h1         1 U96       0.061367
     39 H11          1.1790    41.1720    53.5390 h1         1 U96       0.061367
     40 H12         -0.5170    41.2330    54.0520 h1         1 U96       0.061367
     41 H13         -2.0110    41.7260    52.1910 h4         1 U96       0.225000
     42 H14         -3.0650    41.6900    49.2610 ha         1 U96       0.114000
     43 H15          1.1090    38.9780    48.6510 ha         1 U96       0.127000
     44 H16         -7.3350    40.7330    43.9220 hn         1 U96       0.377000
     45 H17         -3.3400    44.1210    43.6530 h4         1 U96       0.028100
     46 H18         -0.5630    45.0800    40.0480 hc         1 U96       0.051367
     47 H19         -0.4240    43.5450    39.1860 hc         1 U96       0.051367
     48 H20         -1.9430    44.4410    39.1710 hc         1 U96       0.051367
     49 C19          0.2140    40.6730    53.4770 c3         1 U96       0.061900
     50 O           -0.9660    41.7990    45.4860 o          1 U96      -0.525000
@<TRIPOS>BOND
     1     1     2 ar  
     2     1    27 ar  
     3     1    28 1   
     4     2     3 ar  
     5     2    29 1   
     6     3    25 ar  
     7     3    30 1   
     8     4     5 2   
     9     4    12 1   
    10     4    17 1   
    11     5     6 1   
    12     5    31 1   
    13     6    11 1   
    14     6    23 2   
    15     7     8 1   
    16     7    11 2   
    17     7    22 1   
    18     8     9 1   
    19     8    10 1   
    20     8    32 1   
    21     9    10 1   
    22     9    33 1   
    23     9    34 1   
    24    10    35 1   
    25    10    36 1   
    26    11    24 1   
    27    12    13 ar  
    28    12    16 ar  
    29    13    21 ar  
    30    13    37 1   
    31    14    15 2   
    32    14    18 1   
    33    14    41 1   
    34    15    16 ar  
    35    15    20 ar  
    36    16    42 1   
    37    17    24 1   
    38    17    50 2   
    39    18    19 1   
    40    18    49 1   
    41    19    20 2   
    42    20    21 ar  
    43    21    43 1   
    44    22    23 1   
    45    22    44 1   
    46    24    25 1   
    47    25    26 ar  
    48    26    27 ar  
    49    26    45 1   
    50    28    46 1   
    51    28    47 1   
    52    28    48 1   
    53    38    49 1   
    54    39    49 1   
    55    40    49 1   
@<TRIPOS>SUBSTRUCTURE
     1 U96         1 TEMP              0 ****  ****    0 ROOT
