@<TRIPOS>MOLECULE
U97
   25    25     1     0     0
SMALL
bcc


@<TRIPOS>ATOM
      1 C4           2.9750   113.4790   292.7330 c6         1 U97       0.111100
      2 C5           1.7250   112.8540   293.3490 c6         1 U97      -0.014900
      3 C6           1.9940   112.0380   294.6390 c          1 U97       0.947600
      4 C3           2.5910   114.1590   291.4220 c6         1 U97       0.135100
      5 O6B          3.1700   111.6230   294.8070 o          1 U97      -0.827800
      6 OBA          2.7090   112.4940   287.8730 o          1 U97      -0.719533
      7 OBC          2.1140   114.8120   287.2930 o          1 U97      -0.719533
      8 OBE          0.3850   113.0730   287.3140 o          1 U97      -0.719533
      9 SBB          1.6730   113.5290   287.8390 s6         1 U97       1.519300
     10 C1           0.6870   112.5510   291.2550 c6         1 U97       0.327900
     11 O1           0.1290   111.5810   290.4510 oh         1 U97      -0.561800
     12 C2           1.8580   113.1880   290.5070 c6         1 U97       0.196100
     13 O2           1.3450   113.9190   289.4080 os         1 U97      -0.589500
     14 O3           3.6950   114.6660   290.7180 oh         1 U97      -0.559800
     15 O4           3.9760   112.5250   292.5060 oh         1 U97      -0.627800
     16 O5           1.1350   111.9410   292.4380 os         1 U97      -0.421600
     17 O6A          1.0250   111.8400   295.3790 o          1 U97      -0.827800
     18 H4           3.3210   114.2660   293.4280 h1         1 U97      -0.005300
     19 H5           1.0140   113.6620   293.5850 h1         1 U97       0.013700
     20 H3           1.8860   114.9650   291.6820 h1         1 U97       0.012700
     21 H1          -0.0450   113.3410   291.5090 h2         1 U97       0.000700
     22 H2           2.5410   112.3970   290.1800 h1         1 U97       0.108700
     23 HO3          4.0870   115.3730   291.2400 ho         1 U97       0.372000
     24 HO4          3.9580   112.0020   293.3400 ho         1 U97       0.460000
     25 HO1         -0.7630   111.3860   290.7570 ho         1 U97       0.391000
@<TRIPOS>BOND
     1     1     2 1   
     2     1     4 1   
     3     1    15 1   
     4     1    18 1   
     5     2     3 1   
     6     2    16 1   
     7     2    19 1   
     8     3     5 1   
     9     3    17 1   
    10     4    12 1   
    11     4    14 1   
    12     4    20 1   
    13     6     9 1   
    14     7     9 1   
    15     8     9 1   
    16     9    13 1   
    17    10    11 1   
    18    10    12 1   
    19    10    16 1   
    20    10    21 1   
    21    11    25 1   
    22    12    13 1   
    23    12    22 1   
    24    14    23 1   
    25    15    24 1   
@<TRIPOS>SUBSTRUCTURE
     1 U97         1 TEMP              0 ****  ****    0 ROOT
