@<TRIPOS>MOLECULE
U97
   25    25     1     0     0
SMALL
No Charge or Current Charge


@<TRIPOS>ATOM
      1 C4           2.9270   113.5450   292.7630 c6         1 U97       0.134300
      2 C5           1.6940   112.8480   293.3920 c6         1 U97       0.008300
      3 C6           2.0690   112.1860   294.7660 c          1 U97       0.737000
      4 C3           2.4730   114.3060   291.4750 c6         1 U97       0.158300
      5 O6B          2.2230   110.9700   294.7620 o          1 U97      -0.722500
      6 OBA          3.3350   113.5690   287.9850 o          1 U97      -0.719533
      7 OBC          1.4090   114.7080   286.9340 o          1 U97      -0.719533
      8 OBE          1.2610   112.3180   287.5340 o          1 U97      -0.719533
      9 SBB          1.8770   113.6230   287.8090 s6         1 U97       1.519300
     10 C1           0.6220   112.6040   291.2420 c6         1 U97       0.374300
     11 O1          -0.0220   111.5920   290.4860 oh         1 U97      -0.624000
     12 C2           1.7860   113.3200   290.4580 c6         1 U97       0.219300
     13 O2           1.2940   114.0380   289.2890 os         1 U97      -0.612700
     14 O3           3.6010   114.9940   290.9020 oh         1 U97      -0.622000
     15 O4           3.9430   112.5770   292.4340 oh         1 U97      -0.750000
     16 O5           1.1240   111.9330   292.4080 os         1 U97      -0.468000
     17 O6A          1.6050   112.7320   295.7600 o          1 U97      -0.722500
     18 H4           3.3270   114.2720   293.4840 h1         1 U97      -0.005300
     19 H5           0.9370   113.6160   293.6130 h1         1 U97       0.013700
     20 H3           1.7220   115.0520   291.7750 h1         1 U97       0.012700
     21 H1          -0.1260   113.3490   291.5520 h2         1 U97       0.000700
     22 H2           2.5100   112.5480   290.1600 h1         1 U97       0.108700
     23 HO3          4.3410   114.3510   290.9590 ho         1 U97       0.411000
     24 HO4          3.5200   111.6900   292.5530 ho         1 U97       0.559000
     25 HO1         -0.2640   110.9230   291.1580 ho         1 U97       0.430000
@<TRIPOS>BOND
     1     1     2 1   
     2     1     4 1   
     3     1    15 1   
     4     1    18 1   
     5     2     3 1   
     6     2    16 1   
     7     2    19 1   
     8     3     5 1   
     9     3    17 1   
    10     4    12 1   
    11     4    14 1   
    12     4    20 1   
    13     6     9 1   
    14     7     9 1   
    15     8     9 1   
    16     9    13 1   
    17    10    11 1   
    18    10    12 1   
    19    10    16 1   
    20    10    21 1   
    21    11    25 1   
    22    12    13 1   
    23    12    22 1   
    24    14    23 1   
    25    15    24 1   
@<TRIPOS>SUBSTRUCTURE
     1 U97         1 TEMP              0 ****  ****    0 ROOT
