@<TRIPOS>MOLECULE
U98
   31    32     1     0     0
SMALL
No Charge or Current Charge


@<TRIPOS>ATOM
      1 NAA          3.3250    -1.5410     1.7060 n8         1 U98      -1.012100
      2 FAB         -4.5890    -1.8130     0.6540 f          1 U98      -0.113333
      3 OAC          4.3290    -1.9560    -0.4560 o          1 U98      -0.549500
      4 SAD          3.0750    -1.4610     0.1030 sy         1 U98       1.143600
      5 OAE          1.8070    -2.1590    -0.0880 o          1 U98      -0.549500
      6 FAF         -5.5280    -0.2520    -0.5330 f          1 U98      -0.113333
      7 CAH         -3.2440     0.0860     0.1320 ca         1 U98      -0.172300
      8 CAI         -1.8860    -0.2320    -0.1010 ca         1 U98      -0.111000
      9 CAJ         -0.8540     0.6430     0.2850 ca         1 U98       0.303000
     10 CAL          1.6620     0.9140    -0.1590 ca         1 U98       0.720900
     11 CAM          2.9050     0.2760    -0.1760 ca         1 U98      -0.399500
     12 CAN          4.0600     1.0390    -0.4180 ca         1 U98       0.055000
     13 FAO         -4.0410    -1.5480    -1.4330 f          1 U98      -0.113333
     14 CAP         -3.5560     1.2950     0.7890 ca         1 U98      -0.083000
     15 CAQ         -2.5320     2.1660     1.1950 ca         1 U98      -0.099000
     16 CAR         -1.1870     1.8410     0.9460 ca         1 U98      -0.088000
     17 NAS          1.5130     2.2200    -0.3970 nb         1 U98      -0.760000
     18 CAT          2.6170     2.9560    -0.6330 ca         1 U98       0.444900
     19 CAU          3.9040     2.4090    -0.6490 ca         1 U98      -0.239000
     20 HNAA         4.2350    -1.9970     1.7230 hn         1 U98       0.479000
     21 HNAB         2.7030    -2.3060     1.9550 hn         1 U98       0.479000
     22 HAI         -1.6290    -1.1670    -0.5940 ha         1 U98       0.136000
     23 HNAK         0.5910    -0.7500    -0.0640 hn         1 U98       0.526000
     24 HAN          5.0530     0.5900    -0.4300 ha         1 U98       0.143000
     25 HAP         -4.5910     1.5620     0.9970 ha         1 U98       0.132000
     26 HAQ         -2.7790     3.0920     1.7090 ha         1 U98       0.121000
     27 HAR         -0.4100     2.5150     1.2890 ha         1 U98       0.141000
     28 HAT          2.4630     4.0190    -0.8160 h4         1 U98       0.023100
     29 HAU          4.7630     3.0440    -0.8430 ha         1 U98       0.135000
     30 NAK          0.4690     0.2570     0.0410 nu         1 U98      -0.936900
     31 CAG         -4.3540    -0.8820    -0.2980 c3         1 U98       0.356300
@<TRIPOS>BOND
     1     1     4 1   
     2     1    20 1   
     3     1    21 1   
     4     2    31 1   
     5     3     4 2   
     6     4     5 2   
     7     4    11 1   
     8     6    31 1   
     9     7     8 ar  
    10     7    14 ar  
    11     7    31 1   
    12     8     9 ar  
    13     8    22 1   
    14     9    16 ar  
    15     9    30 1   
    16    10    11 ar  
    17    10    17 ar  
    18    10    30 1   
    19    11    12 ar  
    20    12    19 ar  
    21    12    24 1   
    22    13    31 1   
    23    14    15 ar  
    24    14    25 1   
    25    15    16 ar  
    26    15    26 1   
    27    16    27 1   
    28    17    18 ar  
    29    18    19 ar  
    30    18    28 1   
    31    19    29 1   
    32    23    30 1   
@<TRIPOS>SUBSTRUCTURE
     1 U98         1 TEMP              0 ****  ****    0 ROOT
