@<TRIPOS>MOLECULE
U98
   31    32     1     0     0
SMALL
bcc


@<TRIPOS>ATOM
      1 NAA          2.8250    -1.6370     1.6010 n8         1 U98      -0.901700
      2 FAB         -4.3810    -1.8160     0.7380 f          1 U98      -0.234633
      3 OAC          4.4630    -1.8300    -0.4020 o          1 U98      -0.620300
      4 SAD          3.1040    -1.4880    -0.0150 sy         1 U98       1.285200
      5 OAE          2.0070    -2.2000    -0.6660 o          1 U98      -0.620300
      6 FAF         -5.4260    -0.2830    -0.3510 f          1 U98      -0.234633
      7 CAH         -3.1590     0.1050     0.1650 ca         1 U98      -0.172300
      8 CAI         -1.8350    -0.2460    -0.0520 ca         1 U98      -0.129000
      9 CAJ         -0.8020     0.6140     0.3200 ca         1 U98       0.164600
     10 CAL          1.6270     0.8810    -0.1210 ca         1 U98       0.786200
     11 CAM          2.8910     0.2490    -0.2400 ca         1 U98      -0.464800
     12 CAN          4.0040     1.0180    -0.5290 ca         1 U98       0.037000
     13 FAO         -3.9670    -1.5100    -1.3480 f          1 U98      -0.234633
     14 CAP         -3.4790     1.3220     0.7510 ca         1 U98      -0.101000
     15 CAQ         -2.4490     2.1730     1.1230 ca         1 U98      -0.117000
     16 CAR         -1.1210     1.8340     0.9200 ca         1 U98      -0.106000
     17 NAS          1.5210     2.1960    -0.2550 nb         1 U98      -0.760000
     18 CAT          2.5990     2.9200    -0.5140 ca         1 U98       0.510200
     19 CAU          3.8660     2.3890    -0.6740 ca         1 U98      -0.322300
     20 HNAA         3.5990    -1.3120     2.1720 hn         1 U98       0.423800
     21 HNAB         2.5640    -2.5840     1.8550 hn         1 U98       0.423800
     22 HAI         -1.5870    -1.1920    -0.5190 ha         1 U98       0.154000
     23 HNAK         0.5730    -0.8370    -0.0470 hn         1 U98       0.470800
     24 HAN          4.9750     0.5540    -0.6320 ha         1 U98       0.161000
     25 HAP         -4.5050     1.6150     0.9220 ha         1 U98       0.150000
     26 HAQ         -2.6840     3.1210     1.5880 ha         1 U98       0.139000
     27 HAR         -0.3460     2.5140     1.2310 ha         1 U98       0.159000
     28 HAT          2.4390     3.9880    -0.6060 h4         1 U98       0.023100
     29 HAU          4.7140     3.0200    -0.8950 ha         1 U98       0.153000
     30 NAK          0.4980     0.1560     0.1180 nu         1 U98      -0.743300
     31 CAG         -4.2340    -0.8700    -0.2030 c3         1 U98       0.720200
@<TRIPOS>BOND
     1     1     4 1   
     2     1    20 1   
     3     1    21 1   
     4     2    31 1   
     5     3     4 2   
     6     4     5 2   
     7     4    11 1   
     8     6    31 1   
     9     7     8 ar  
    10     7    14 ar  
    11     7    31 1   
    12     8     9 ar  
    13     8    22 1   
    14     9    16 ar  
    15     9    30 1   
    16    10    11 ar  
    17    10    17 ar  
    18    10    30 1   
    19    11    12 ar  
    20    12    19 ar  
    21    12    24 1   
    22    13    31 1   
    23    14    15 ar  
    24    14    25 1   
    25    15    16 ar  
    26    15    26 1   
    27    16    27 1   
    28    17    18 ar  
    29    18    19 ar  
    30    18    28 1   
    31    19    29 1   
    32    23    30 1   
@<TRIPOS>SUBSTRUCTURE
     1 U98         1 TEMP              0 ****  ****    0 ROOT
