@<TRIPOS>MOLECULE
U99
   61    64     1     0     0
SMALL
abcg2


@<TRIPOS>ATOM
      1 C1         129.9050   122.3890    98.9120 c3         1 U99       0.138900
      2 C2         131.2060   122.9270    97.0070 c3         1 U99       0.379600
      3 C3         129.4230   122.2800    95.5290 c6         1 U99       0.076300
      4 C4         128.0680   122.8280    95.0910 c6         1 U99      -0.064400
      5 C5         127.2760   121.7790    94.3080 c6         1 U99      -0.123700
      6 C6         125.9030   122.3270    93.9730 c          1 U99       0.592100
      7 O2         130.1470   123.3220    96.1500 os         1 U99      -0.463000
      8 C10        127.2100   120.1690    92.3560 c6         1 U99      -0.076400
      9 C11        127.9940   119.2980    91.3760 c6         1 U99      -0.056400
     10 C12        129.1840   118.6700    92.0910 c6         1 U99      -0.169700
     11 C13        129.8670   117.5810    91.2940 c          1 U99       0.673100
     12 C14        131.9450   117.9100    92.6190 c6         1 U99       0.278600
     13 C15        132.7150   116.9020    93.4020 cc         1 U99      -0.173300
     14 C16        133.5960   115.9020    92.8580 cc         1 U99      -0.152000
     15 C17        134.1110   115.2290    93.9130 cd         1 U99       0.122900
     16 C18        132.7720   116.7550    94.7510 cd         1 U99       0.144900
     17 C19        131.1970   118.9200    93.4640 c6         1 U99      -0.113400
     18 C20        130.1770   119.7180    92.6360 c6         1 U99      -0.012000
     19 C21        130.8840   120.4530    91.4850 c3         1 U99      -0.092100
     20 C22        129.3690   120.6240    93.6000 c6         1 U99      -0.146700
     21 C23        130.1660   121.6840    94.3360 c          1 U99       0.546100
     22 C7         123.5990   121.8070    93.8210 c3         1 U99       0.151900
     23 C8         128.0460   121.2670    93.0410 c6         1 U99      -0.013000
     24 C9         128.3020   122.4230    92.0610 c3         1 U99      -0.096100
     25 O1         130.9240   123.2120    98.3460 os         1 U99      -0.460000
     26 O3         125.6760   123.4560    93.5970 o          1 U99      -0.475000
     27 O4         124.9460   121.4080    94.1480 os         1 U99      -0.451100
     28 O5         129.3500   117.0100    90.3580 o          1 U99      -0.503000
     29 O6         131.0740   117.1550    91.6990 os         1 U99      -0.461100
     30 O7         133.6200   115.7410    95.0820 os         1 U99      -0.249000
     31 O8         131.2850   122.0470    94.0450 o          1 U99      -0.499100
     32 H1         129.8630   122.6180    99.9750 h1         1 U99       0.032700
     33 H2         128.9300   122.5980    98.4620 h1         1 U99       0.032700
     34 H3         130.1440   121.3290    98.7750 h1         1 U99       0.032700
     35 H5         131.4120   121.8580    96.8760 h2         1 U99       0.056700
     36 H4         132.0830   123.5190    96.7510 h2         1 U99       0.056700
     37 H6         129.2590   121.4530    96.2310 h1         1 U99       0.041700
     38 H8         128.2250   123.7200    94.4830 hc         1 U99       0.078200
     39 H7         127.5140   123.1310    95.9810 hc         1 U99       0.078200
     40 H9         127.1160   120.9080    94.9460 hc         1 U99       0.070700
     41 H17        126.3660   120.6330    91.8400 hc         1 U99       0.051200
     42 H16        126.7900   119.5200    93.1280 hc         1 U99       0.051200
     43 H19        128.3300   119.8720    90.5110 hc         1 U99       0.063200
     44 H18        127.3400   118.5140    90.9940 hc         1 U99       0.063200
     45 H20        128.7910   118.1310    92.9650 hc         1 U99       0.068700
     46 H21        132.6360   118.4300    91.9530 h1         1 U99       0.072700
     47 H22        133.8020   115.7220    91.8160 ha         1 U99       0.153000
     48 H23        134.8000   114.4080    94.0080 h4         1 U99       0.056100
     49 H24        132.3090   117.2710    95.5730 h4         1 U99       0.049100
     50 H26        130.6670   118.4110    94.2720 hc         1 U99       0.061700
     51 H25        131.9370   119.5810    93.9150 hc         1 U99       0.061700
     52 H28        131.6360   121.1350    91.8730 hc         1 U99       0.050367
     53 H27        131.3780   119.7430    90.8200 hc         1 U99       0.050367
     54 H29        130.1960   121.0240    90.8730 hc         1 U99       0.050367
     55 H30        129.0220   119.9480    94.3910 hc         1 U99       0.055700
     56 H12        122.9840   120.9330    94.0120 h1         1 U99       0.052700
     57 H10        123.2900   122.6380    94.4530 h1         1 U99       0.052700
     58 H11        123.5370   122.0980    92.7740 h1         1 U99       0.052700
     59 H15        129.0950   123.0930    92.3950 hc         1 U99       0.050700
     60 H14        128.5790   122.0520    91.0790 hc         1 U99       0.050700
     61 H13        127.3960   123.0150    91.9380 hc         1 U99       0.050700
@<TRIPOS>BOND
     1     1    25 1   
     2     1    32 1   
     3     1    33 1   
     4     1    34 1   
     5     2     7 1   
     6     2    25 1   
     7     2    35 1   
     8     2    36 1   
     9     3     4 1   
    10     3     7 1   
    11     3    21 1   
    12     3    37 1   
    13     4     5 1   
    14     4    38 1   
    15     4    39 1   
    16     5     6 1   
    17     5    23 1   
    18     5    40 1   
    19     6    26 2   
    20     6    27 1   
    21     8     9 1   
    22     8    23 1   
    23     8    41 1   
    24     8    42 1   
    25     9    10 1   
    26     9    43 1   
    27     9    44 1   
    28    10    11 1   
    29    10    18 1   
    30    10    45 1   
    31    11    28 2   
    32    11    29 1   
    33    12    13 1   
    34    12    17 1   
    35    12    29 1   
    36    12    46 1   
    37    13    14 1   
    38    13    16 2   
    39    14    15 2   
    40    14    47 1   
    41    15    30 1   
    42    15    48 1   
    43    16    30 1   
    44    16    49 1   
    45    17    18 1   
    46    17    50 1   
    47    17    51 1   
    48    18    19 1   
    49    18    20 1   
    50    19    52 1   
    51    19    53 1   
    52    19    54 1   
    53    20    21 1   
    54    20    23 1   
    55    20    55 1   
    56    21    31 2   
    57    22    27 1   
    58    22    56 1   
    59    22    57 1   
    60    22    58 1   
    61    23    24 1   
    62    24    59 1   
    63    24    60 1   
    64    24    61 1   
@<TRIPOS>SUBSTRUCTURE
     1 U99         1 TEMP              0 ****  ****    0 ROOT
