@<TRIPOS>MOLECULE
U99
   61    64     1     0     0
SMALL
No Charge or Current Charge


@<TRIPOS>ATOM
      1 C1         129.8800   122.0740    98.8480 c3         1 U99       0.138900
      2 C2         131.2370   123.0730    97.0720 c3         1 U99       0.379600
      3 C3         129.3860   122.3930    95.5610 c6         1 U99       0.076300
      4 C4         128.0090   122.9270    95.0840 c6         1 U99      -0.064400
      5 C5         127.2450   121.9260    94.1750 c6         1 U99      -0.123700
      6 C6         125.7870   122.3570    93.8710 c          1 U99       0.592100
      7 O2         130.1170   123.4500    96.2440 os         1 U99      -0.463000
      8 C10        127.2270   120.2910    92.1930 c6         1 U99      -0.076400
      9 C11        128.0660   119.3890    91.2450 c6         1 U99      -0.056400
     10 C12        129.1560   118.6420    92.0690 c6         1 U99      -0.169700
     11 C13        129.7900   117.4340    91.3220 c          1 U99       0.673100
     12 C14        131.9040   117.7820    92.6030 c6         1 U99       0.278600
     13 C15        132.7960   116.8800    93.4290 cc         1 U99      -0.173300
     14 C16        133.5090   115.7780    92.9130 cc         1 U99      -0.152000
     15 C17        134.1940   115.2310    93.9620 cd         1 U99       0.122900
     16 C18        133.0990   116.9330    94.7650 cd         1 U99       0.144900
     17 C19        131.1780   118.8310    93.4800 c6         1 U99      -0.113400
     18 C20        130.1820   119.6750    92.6380 c6         1 U99      -0.012000
     19 C21        130.9860   120.4040    91.4940 c3         1 U99      -0.092100
     20 C22        129.3780   120.6820    93.5630 c6         1 U99      -0.146700
     21 C23        130.1910   121.7030    94.4100 c          1 U99       0.546100
     22 C7         123.4590   121.7420    94.0370 c3         1 U99       0.151900
     23 C8         128.0770   121.3620    92.9570 c6         1 U99      -0.013000
     24 C9         128.4120   122.5480    91.9810 c3         1 U99      -0.096100
     25 O1         130.8030   123.1010    98.4470 os         1 U99      -0.460000
     26 O3         125.5070   123.4180    93.3310 o          1 U99      -0.475000
     27 O4         124.8470   121.4420    94.2770 os         1 U99      -0.451100
     28 O5         129.0410   116.5890    90.8530 o          1 U99      -0.503000
     29 O6         130.9800   116.9790    91.8430 os         1 U99      -0.461100
     30 O7         133.9630   115.9240    95.1290 os         1 U99      -0.249000
     31 O8         131.3720   121.9570    94.1970 o          1 U99      -0.499100
     32 H1         129.7360   122.0990    99.9360 h1         1 U99       0.032700
     33 H2         128.8980   122.2210    98.3800 h1         1 U99       0.032700
     34 H3         130.2560   121.0790    98.5780 h1         1 U99       0.032700
     35 H5         131.6290   122.0850    96.8020 h2         1 U99       0.056700
     36 H4         132.0510   123.7940    96.9340 h2         1 U99       0.056700
     37 H6         129.1840   121.5860    96.2780 h1         1 U99       0.041700
     38 H8         128.1580   123.8700    94.5400 hc         1 U99       0.078200
     39 H7         127.3960   123.1780    95.9620 hc         1 U99       0.078200
     40 H9         127.0760   121.0490    94.8160 hc         1 U99       0.070700
     41 H17        126.4310   120.7810    91.6150 hc         1 U99       0.051200
     42 H16        126.7110   119.6420    92.9150 hc         1 U99       0.051200
     43 H19        128.4980   119.9610    90.4150 hc         1 U99       0.063200
     44 H18        127.3870   118.6610    90.7800 hc         1 U99       0.063200
     45 H20        128.6300   118.1630    92.9080 hc         1 U99       0.068700
     46 H21        132.5470   118.3120    91.8870 h1         1 U99       0.072700
     47 H22        133.5060   115.4360    91.8830 ha         1 U99       0.153000
     48 H23        134.8580   114.3760    94.0070 h4         1 U99       0.056100
     49 H24        132.7780   117.6170    95.5410 h4         1 U99       0.049100
     50 H26        130.6470   118.3220    94.2970 hc         1 U99       0.061700
     51 H25        131.9320   119.4710    93.9550 hc         1 U99       0.061700
     52 H28        131.8800   120.9050    91.8820 hc         1 U99       0.050367
     53 H27        131.3250   119.7080    90.7180 hc         1 U99       0.050367
     54 H29        130.4150   121.1620    90.9650 hc         1 U99       0.050367
     55 H30        128.9430   120.0490    94.3490 hc         1 U99       0.055700
     56 H12        122.8230   120.9290    94.4090 h1         1 U99       0.052700
     57 H10        123.1630   122.6670    94.5490 h1         1 U99       0.052700
     58 H11        123.2640   121.8620    92.9630 h1         1 U99       0.052700
     59 H15        129.2810   123.1290    92.3090 hc         1 U99       0.050700
     60 H14        128.5980   122.2160    90.9560 hc         1 U99       0.050700
     61 H13        127.5800   123.2530    91.8920 hc         1 U99       0.050700
@<TRIPOS>BOND
     1     1    25 1   
     2     1    32 1   
     3     1    33 1   
     4     1    34 1   
     5     2     7 1   
     6     2    25 1   
     7     2    35 1   
     8     2    36 1   
     9     3     4 1   
    10     3     7 1   
    11     3    21 1   
    12     3    37 1   
    13     4     5 1   
    14     4    38 1   
    15     4    39 1   
    16     5     6 1   
    17     5    23 1   
    18     5    40 1   
    19     6    26 2   
    20     6    27 1   
    21     8     9 1   
    22     8    23 1   
    23     8    41 1   
    24     8    42 1   
    25     9    10 1   
    26     9    43 1   
    27     9    44 1   
    28    10    11 1   
    29    10    18 1   
    30    10    45 1   
    31    11    28 2   
    32    11    29 1   
    33    12    13 1   
    34    12    17 1   
    35    12    29 1   
    36    12    46 1   
    37    13    14 1   
    38    13    16 2   
    39    14    15 2   
    40    14    47 1   
    41    15    30 1   
    42    15    48 1   
    43    16    30 1   
    44    16    49 1   
    45    17    18 1   
    46    17    50 1   
    47    17    51 1   
    48    18    19 1   
    49    18    20 1   
    50    19    52 1   
    51    19    53 1   
    52    19    54 1   
    53    20    21 1   
    54    20    23 1   
    55    20    55 1   
    56    21    31 2   
    57    22    27 1   
    58    22    56 1   
    59    22    57 1   
    60    22    58 1   
    61    23    24 1   
    62    24    59 1   
    63    24    60 1   
    64    24    61 1   
@<TRIPOS>SUBSTRUCTURE
     1 U99         1 TEMP              0 ****  ****    0 ROOT
