@<TRIPOS>MOLECULE
U9A
   28    28     1     0     0
SMALL
abcg2


@<TRIPOS>ATOM
      1 C4          -0.2990   110.8280   291.0070 c6         1 U9A       0.089300
      2 C3           1.0800   110.1350   290.8930 c6         1 U9A       0.157300
      3 C2           0.9110   108.6570   290.5350 c6         1 U9A       0.149500
      4 C5          -1.3470   110.1800   290.1130 c6         1 U9A       0.467300
      5 C1          -0.4330   108.1510   291.0720 c6         1 U9A       0.427300
      6 N2           2.0020   107.8530   291.0740 n7         1 U9A      -0.891300
      7 OAB          3.6100   105.9630   290.9000 o          1 U9A      -0.706200
      8 OAF          1.5290   105.9430   289.5650 o          1 U9A      -0.706200
      9 OAH          3.3760   107.4200   288.9320 o          1 U9A      -0.706200
     10 O3           1.9090   110.7430   289.9420 oh         1 U9A      -0.631000
     11 O5          -1.5100   108.8370   290.4330 os         1 U9A      -0.496000
     12 O1          -0.6450   106.8090   290.8830 oh         1 U9A      -0.692000
     13 SAG          2.7050   106.7190   290.0340 s6         1 U9A       1.360700
     14 O5B         -0.9440   110.3390   288.7700 os         1 U9A      -0.586700
     15 OBF         -2.6140   112.0050   288.0070 o          1 U9A      -0.713867
     16 OBH         -3.1020   109.6170   287.7480 o          1 U9A      -0.713867
     17 OBI         -1.3030   110.6520   286.4190 o          1 U9A      -0.713867
     18 SBG         -2.1060   110.6830   287.6370 s6         1 U9A       1.505300
     19 O4          -0.2030   112.1930   290.6860 oh         1 U9A      -0.687000
     20 H6          -0.6530   110.6970   292.0360 h1         1 U9A       0.017700
     21 H7           1.5380   110.1940   291.8940 h1         1 U9A      -0.002300
     22 H8           0.8800   108.5930   289.4410 h1         1 U9A       0.118700
     23 H9          -2.3120   110.6710   290.2810 h2         1 U9A       0.061700
     24 H10         -0.4860   108.3560   292.1530 h2         1 U9A       0.011700
     25 HAM          2.7200   108.4040   291.5310 hn         1 U9A       0.436000
     26 HAL          1.6610   111.6760   289.9110 ho         1 U9A       0.446000
     27 HO1          0.0530   106.4300   290.3070 ho         1 U9A       0.524000
     28 H2          -0.0230   112.6890   291.4910 ho         1 U9A       0.474000
@<TRIPOS>BOND
     1     1     2 1   
     2     1     4 1   
     3     1    19 1   
     4     1    20 1   
     5     2     3 1   
     6     2    10 1   
     7     2    21 1   
     8     3     5 1   
     9     3     6 1   
    10     3    22 1   
    11     4    11 1   
    12     4    14 1   
    13     4    23 1   
    14     5    11 1   
    15     5    12 1   
    16     5    24 1   
    17     6    13 1   
    18     6    25 1   
    19     7    13 1   
    20     8    13 1   
    21     9    13 1   
    22    10    26 1   
    23    12    27 1   
    24    14    18 1   
    25    15    18 1   
    26    16    18 1   
    27    17    18 1   
    28    19    28 1   
@<TRIPOS>SUBSTRUCTURE
     1 U9A         1 TEMP              0 ****  ****    0 ROOT
