@<TRIPOS>MOLECULE
U9A
   28    28     1     0     0
SMALL
No Charge or Current Charge


@<TRIPOS>ATOM
      1 C4          -0.1500   110.9820   291.1270 c6         1 U9A       0.089300
      2 C3           1.1650   110.1270   291.0520 c6         1 U9A       0.157300
      3 C2           0.9180   108.6700   290.5360 c6         1 U9A       0.149500
      4 C5          -1.2680   110.4030   290.1730 c6         1 U9A       0.467300
      5 C1          -0.4950   108.2400   291.0770 c6         1 U9A       0.427300
      6 N2           2.0700   107.7910   290.9310 n7         1 U9A      -0.891300
      7 OAB          3.2710   105.7010   290.8850 o          1 U9A      -0.706200
      8 OAF          1.2400   106.0280   289.5060 o          1 U9A      -0.706200
      9 OAH          3.3160   107.2760   288.9640 o          1 U9A      -0.706200
     10 O3           2.1180   110.8010   290.2220 oh         1 U9A      -0.631000
     11 O5          -1.5530   109.0110   290.4750 os         1 U9A      -0.496000
     12 O1          -0.8040   106.8810   290.8080 oh         1 U9A      -0.692000
     13 SAG          2.5280   106.5530   289.9570 s6         1 U9A       1.360700
     14 O5B         -0.8700   110.5290   288.8070 os         1 U9A      -0.586700
     15 OBF         -3.2280   110.9880   288.2420 o          1 U9A      -0.713867
     16 OBH         -2.1140   108.9520   287.3940 o          1 U9A      -0.713867
     17 OBI         -1.4650   111.1630   286.5260 o          1 U9A      -0.713867
     18 SBG         -2.0190   110.3960   287.6510 s6         1 U9A       1.505300
     19 O4           0.1640   112.3850   290.8890 oh         1 U9A      -0.687000
     20 H6          -0.5380   110.8840   292.1510 h1         1 U9A       0.017700
     21 H7           1.5620   110.0700   292.0760 h1         1 U9A      -0.002300
     22 H8           0.8540   108.7180   289.4370 h1         1 U9A       0.118700
     23 H9          -2.1780   110.9950   290.3520 h2         1 U9A       0.061700
     24 H10         -0.5140   108.3990   292.1660 h2         1 U9A       0.011700
     25 HAM          2.9090   108.3330   290.7440 hn         1 U9A       0.436000
     26 HAL          1.7210   111.7040   290.1550 ho         1 U9A       0.446000
     27 HO1          0.0050   106.5460   290.3180 ho         1 U9A       0.524000
     28 H2          -0.6510   112.9080   291.0730 ho         1 U9A       0.474000
@<TRIPOS>BOND
     1     1     2 1   
     2     1     4 1   
     3     1    19 1   
     4     1    20 1   
     5     2     3 1   
     6     2    10 1   
     7     2    21 1   
     8     3     5 1   
     9     3     6 1   
    10     3    22 1   
    11     4    11 1   
    12     4    14 1   
    13     4    23 1   
    14     5    11 1   
    15     5    12 1   
    16     5    24 1   
    17     6    13 1   
    18     6    25 1   
    19     7    13 1   
    20     8    13 1   
    21     9    13 1   
    22    10    26 1   
    23    12    27 1   
    24    14    18 1   
    25    15    18 1   
    26    16    18 1   
    27    17    18 1   
    28    19    28 1   
@<TRIPOS>SUBSTRUCTURE
     1 U9A         1 TEMP              0 ****  ****    0 ROOT
