@<TRIPOS>MOLECULE
U9B
   49    50     1     0     0
SMALL
No Charge or Current Charge


@<TRIPOS>ATOM
      1 C1           8.3330    13.1000    25.5040 c3         1 U9B       0.107600
      2 C2           8.5920    14.0290    24.3070 c3         1 U9B      -0.118400
      3 C5          11.8230    15.8640    22.8120 c6         1 U9B      -0.560000
      4 C6          12.1550    16.9010    23.8730 c          1 U9B       0.743000
      5 C7          12.8190    14.6910    22.8230 c6         1 U9B       0.130600
      6 C8          13.0930    12.3790    21.9010 c3         1 U9B       0.157900
      7 C15         12.9740    14.3640    20.3380 c6         1 U9B       0.133600
      8 C16         12.0950    15.5750    20.0260 c6         1 U9B      -0.502400
      9 N1           8.5270    13.8150    26.8140 nz         1 U9B      -0.977000
     10 C3          10.0430    14.5590    24.2340 c3         1 U9B      -0.082400
     11 C4          10.3310    15.3720    22.9510 c3         1 U9B      -0.041400
     12 O1          11.3660    17.8130    24.0590 o          1 U9B      -0.656500
     13 O2          13.1620    16.7340    24.5410 o          1 U9B      -0.656500
     14 N2          12.5300    13.7660    21.6580 nx         1 U9B      -0.684000
     15 C9          12.0620    11.3930    23.4590 ca         1 U9B      -0.151300
     16 C10         12.5780    11.4070    24.7660 ca         1 U9B      -0.080000
     17 C11         11.8710    10.7850    25.8100 ca         1 U9B      -0.109500
     18 C12         10.6450    10.1470    25.5470 ca         1 U9B      -0.096000
     19 C13         10.1270    10.1360    24.2400 ca         1 U9B      -0.109500
     20 C14         10.8340    10.7620    23.1980 ca         1 U9B      -0.080000
     21 P1          12.1450    16.8460    21.3250 p5         1 U9B       1.334400
     22 O3          13.7050    17.1760    21.3610 oh         1 U9B      -0.719400
     23 O4          11.2720    18.0150    21.0400 o          1 U9B      -0.512000
     24 H5           7.3070    12.7200    25.4520 hx         1 U9B       0.098200
     25 H4           9.0180    12.2460    25.4560 hx         1 U9B       0.098200
     26 H7           7.8910    14.8720    24.3380 hc         1 U9B       0.082200
     27 H6           8.3700    13.4690    23.3900 hc         1 U9B       0.082200
     28 H12         12.7330    14.1030    23.7440 hx         1 U9B       0.109200
     29 H13         13.8610    15.0270    22.7440 hx         1 U9B       0.109200
     30 H15         13.0020    11.8000    20.9780 hx         1 U9B       0.098700
     31 H16         14.1570    12.4680    22.1360 hx         1 U9B       0.098700
     32 H23         12.8810    13.5930    19.5650 hx         1 U9B       0.089700
     33 H22         14.0340    14.6320    20.4290 hx         1 U9B       0.089700
     34 H24         12.4200    16.0520    19.0940 hc         1 U9B       0.108200
     35 H25         11.0480    15.2800    19.8940 hc         1 U9B       0.108200
     36 H3           8.3180    13.2210    27.6320 hn         1 U9B       0.516000
     37 H1           9.4900    14.1500    26.9590 hn         1 U9B       0.516000
     38 H2           7.9210    14.6440    26.9180 hn         1 U9B       0.516000
     39 H9          10.7240    13.7030    24.2900 hc         1 U9B       0.054200
     40 H8          10.2490    15.1870    25.1080 hc         1 U9B       0.054200
     41 H11          9.6420    16.2270    22.9210 hc         1 U9B       0.048700
     42 H10         10.0520    14.7570    22.0870 hc         1 U9B       0.048700
     43 H14         11.4990    13.6350    21.6140 hn         1 U9B       0.483000
     44 H17         13.5230    11.9050    24.9720 ha         1 U9B       0.127500
     45 H18         12.2720    10.7960    26.8210 ha         1 U9B       0.132500
     46 H19         10.0990     9.6640    26.3540 ha         1 U9B       0.125000
     47 H20          9.1780     9.6450    24.0350 ha         1 U9B       0.132500
     48 H21         10.4280    10.7590    22.1890 ha         1 U9B       0.127500
     49 H27         13.7040    17.9700    20.7960 ho         1 U9B       0.475000
@<TRIPOS>BOND
     1     1     2 1   
     2     1     9 1   
     3     1    24 1   
     4     1    25 1   
     5     2    10 1   
     6     2    26 1   
     7     2    27 1   
     8     3     4 1   
     9     3     5 1   
    10     3    11 1   
    11     3    21 1   
    12     4    12 1   
    13     4    13 1   
    14     5    14 1   
    15     5    28 1   
    16     5    29 1   
    17     6    14 1   
    18     6    15 1   
    19     6    30 1   
    20     6    31 1   
    21     7     8 1   
    22     7    14 1   
    23     7    32 1   
    24     7    33 1   
    25     8    21 1   
    26     8    34 1   
    27     8    35 1   
    28     9    36 1   
    29     9    37 1   
    30     9    38 1   
    31    10    11 1   
    32    10    39 1   
    33    10    40 1   
    34    11    41 1   
    35    11    42 1   
    36    14    43 1   
    37    15    16 ar  
    38    15    20 ar  
    39    16    17 ar  
    40    16    44 1   
    41    17    18 ar  
    42    17    45 1   
    43    18    19 ar  
    44    18    46 1   
    45    19    20 ar  
    46    19    47 1   
    47    20    48 1   
    48    21    22 1   
    49    21    23 2   
    50    22    49 1   
@<TRIPOS>SUBSTRUCTURE
     1 U9B         1 TEMP              0 ****  ****    0 ROOT
