@<TRIPOS>MOLECULE
U9B
   49    50     1     0     0
SMALL
bcc


@<TRIPOS>ATOM
      1 C1           8.1560    13.2800    25.5350 c3         1 U9B       0.135800
      2 C2           8.5320    14.1470    24.3500 c3         1 U9B      -0.118400
      3 C5          11.7990    15.7770    22.9340 c6         1 U9B      -0.402200
      4 C6          12.2390    16.7060    24.1230 c          1 U9B       0.953600
      5 C7          12.7080    14.5490    22.9070 c6         1 U9B       0.158800
      6 C8          13.0610    12.2590    22.0240 c3         1 U9B       0.186100
      7 C15         12.8560    14.1770    20.4610 c6         1 U9B       0.161800
      8 C16         12.0300    15.3960    20.1010 c6         1 U9B      -0.344600
      9 N1           8.1260    14.0570    26.8090 nz         1 U9B      -0.839600
     10 C3           9.9840    14.6100    24.3540 c3         1 U9B      -0.082400
     11 C4          10.3090    15.4070    23.0930 c3         1 U9B      -0.041400
     12 O1          11.7120    17.8280    24.1330 o          1 U9B      -0.761800
     13 O2          13.0470    16.2240    24.9300 o          1 U9B      -0.761800
     14 N2          12.4300    13.6030    21.7740 nx         1 U9B      -0.713400
     15 C9          12.3740    11.5490    23.1510 ca         1 U9B      -0.151300
     16 C10         12.9680    11.4490    24.4050 ca         1 U9B      -0.098000
     17 C11         12.2990    10.8280    25.4510 ca         1 U9B      -0.127500
     18 C12         11.0300    10.3030    25.2500 ca         1 U9B      -0.114000
     19 C13         10.4340    10.3900    23.9980 ca         1 U9B      -0.127500
     20 C14         11.1050    11.0070    22.9520 ca         1 U9B      -0.098000
     21 P1          11.9920    16.7030    21.3710 p5         1 U9B       1.248100
     22 O3          13.5270    17.1900    21.5180 oh         1 U9B      -0.710400
     23 O4          10.9880    17.7480    21.0320 o          1 U9B      -0.741300
     24 H5           7.1640    12.8530    25.4160 hx         1 U9B       0.098200
     25 H4           8.8680    12.4700    25.6800 hx         1 U9B       0.098200
     26 H7           7.8510    15.0010    24.2840 hc         1 U9B       0.082200
     27 H6           8.3520    13.5420    23.4580 hc         1 U9B       0.082200
     28 H12         12.5950    13.9870    23.8300 hx         1 U9B       0.109200
     29 H13         13.7610    14.8150    22.8210 hx         1 U9B       0.109200
     30 H15         12.9750    11.6960    21.0950 hx         1 U9B       0.098700
     31 H16         14.1180    12.4350    22.2240 hx         1 U9B       0.098700
     32 H23         12.7290    13.4000    19.7090 hx         1 U9B       0.089700
     33 H22         13.9180    14.4050    20.5470 hx         1 U9B       0.089700
     34 H24         12.4220    15.8220    19.1750 hc         1 U9B       0.108200
     35 H25         10.9970    15.1030    19.8920 hc         1 U9B       0.108200
     36 H3           7.8510    13.4690    27.5970 hn         1 U9B       0.460800
     37 H1           9.0340    14.4580    27.0450 hn         1 U9B       0.460800
     38 H2           7.4570    14.8280    26.7660 hn         1 U9B       0.460800
     39 H9          10.6210    13.7250    24.4350 hc         1 U9B       0.054200
     40 H8          10.1960    15.2260    25.2320 hc         1 U9B       0.054200
     41 H11          9.7280    16.3300    23.0950 hc         1 U9B       0.048700
     42 H10          9.9470    14.8470    22.2230 hc         1 U9B       0.048700
     43 H14         11.4210    13.4380    21.7220 hn         1 U9B       0.427800
     44 H17         13.9570    11.8610    24.5680 ha         1 U9B       0.145500
     45 H18         12.7680    10.7570    26.4230 ha         1 U9B       0.150500
     46 H19         10.5070     9.8200    26.0660 ha         1 U9B       0.143000
     47 H20          9.4500     9.9730    23.8340 ha         1 U9B       0.150500
     48 H21         10.6390    11.0630    21.9750 ha         1 U9B       0.145500
     49 H27         13.8720    17.6430    20.7360 ho         1 U9B       0.466000
@<TRIPOS>BOND
     1     1     2 1   
     2     1     9 1   
     3     1    24 1   
     4     1    25 1   
     5     2    10 1   
     6     2    26 1   
     7     2    27 1   
     8     3     4 1   
     9     3     5 1   
    10     3    11 1   
    11     3    21 1   
    12     4    12 1   
    13     4    13 1   
    14     5    14 1   
    15     5    28 1   
    16     5    29 1   
    17     6    14 1   
    18     6    15 1   
    19     6    30 1   
    20     6    31 1   
    21     7     8 1   
    22     7    14 1   
    23     7    32 1   
    24     7    33 1   
    25     8    21 1   
    26     8    34 1   
    27     8    35 1   
    28     9    36 1   
    29     9    37 1   
    30     9    38 1   
    31    10    11 1   
    32    10    39 1   
    33    10    40 1   
    34    11    41 1   
    35    11    42 1   
    36    14    43 1   
    37    15    16 ar  
    38    15    20 ar  
    39    16    17 ar  
    40    16    44 1   
    41    17    18 ar  
    42    17    45 1   
    43    18    19 ar  
    44    18    46 1   
    45    19    20 ar  
    46    19    47 1   
    47    20    48 1   
    48    21    22 1   
    49    21    23 2   
    50    22    49 1   
@<TRIPOS>SUBSTRUCTURE
     1 U9B         1 TEMP              0 ****  ****    0 ROOT
