@<TRIPOS>MOLECULE
U9C
   30    32     1     0     0
SMALL
abcg2


@<TRIPOS>ATOM
      1 C1          21.7000     2.2550    24.9760 ca         1 U9C      -0.186000
      2 C2          22.9480     2.5770    25.4840 ca         1 U9C      -0.108000
      3 C3          24.5430     3.7660    26.7060 cc         1 U9C       0.638800
      4 C4          23.1510     3.6750    26.3270 ca         1 U9C      -0.276900
      5 C5          22.0490     4.4580    26.6790 ca         1 U9C      -0.006000
      6 C6          20.8000     4.1530    26.1920 ca         1 U9C      -0.191000
      7 C7          18.1600     3.3920    25.1060 ca         1 U9C       0.235000
      8 C8          17.9800     4.7340    24.7790 ca         1 U9C      -0.089500
      9 C9          16.7820     5.3760    25.0380 ca         1 U9C      -0.162000
     10 C10         15.7020     4.6870    25.6040 ca         1 U9C       0.281000
     11 C11         15.8780     3.3320    25.9020 ca         1 U9C      -0.162000
     12 C12         17.0890     2.7030    25.6690 ca         1 U9C      -0.089500
     13 C           20.6030     3.0490    25.3280 ca         1 U9C       0.367000
     14 N1          25.3290     2.8520    26.2150 nd         1 U9C      -0.603200
     15 N2          25.0080     4.7120    27.5730 nv         1 U9C      -0.988200
     16 N3          14.5210     5.3360    25.9060 nv         1 U9C      -1.068000
     17 S           24.4650     1.7740    25.2510 ss         1 U9C       0.255500
     18 H1          21.5650     1.4030    24.3200 ha         1 U9C       0.122000
     19 H2          22.1600     5.3040    27.3480 ha         1 U9C       0.112000
     20 H3          19.9590     4.7620    26.4910 ha         1 U9C       0.126000
     21 H4          18.7850     5.2880    24.3120 ha         1 U9C       0.119000
     22 H5          16.6740     6.4230    24.7820 ha         1 U9C       0.115000
     23 H6          15.0590     2.7670    26.3330 ha         1 U9C       0.115000
     24 H7          17.2020     1.6560    25.9250 ha         1 U9C       0.119000
     25 H8          19.2850     1.8040    24.4300 hn         1 U9C       0.491000
     26 H9          26.0090     4.8230    27.5970 hn         1 U9C       0.464000
     27 H10         24.5200     5.5930    27.5830 hn         1 U9C       0.464000
     28 H11         14.3290     6.1630    25.3640 hn         1 U9C       0.447000
     29 H12         13.7080     4.7450    25.9760 hn         1 U9C       0.447000
     30 N           19.3690     2.7230    24.8340 nu         1 U9C      -0.990000
@<TRIPOS>BOND
     1     1     2 ar  
     2     1    13 ar  
     3     1    18 1   
     4     2     4 ar  
     5     2    17 1   
     6     3     4 1   
     7     3    14 2   
     8     3    15 1   
     9     4     5 ar  
    10     5     6 ar  
    11     5    19 1   
    12     6    13 ar  
    13     6    20 1   
    14     7     8 ar  
    15     7    12 ar  
    16     7    30 1   
    17     8     9 ar  
    18     8    21 1   
    19     9    10 ar  
    20     9    22 1   
    21    10    11 ar  
    22    10    16 1   
    23    11    12 ar  
    24    11    23 1   
    25    12    24 1   
    26    13    30 1   
    27    14    17 1   
    28    15    26 1   
    29    15    27 1   
    30    16    28 1   
    31    16    29 1   
    32    25    30 1   
@<TRIPOS>SUBSTRUCTURE
     1 U9C         1 TEMP              0 ****  ****    0 ROOT
