@<TRIPOS>MOLECULE
U9C
   30    32     1     0     0
SMALL
No Charge or Current Charge


@<TRIPOS>ATOM
      1 C1          21.6660     2.2570    25.1860 ca         1 U9C      -0.186000
      2 C2          22.9810     2.6280    25.5030 ca         1 U9C      -0.108000
      3 C3          24.6720     3.8270    26.4620 cc         1 U9C       0.638800
      4 C4          23.2480     3.6970    26.3140 ca         1 U9C      -0.276900
      5 C5          22.2120     4.4650    26.8730 ca         1 U9C      -0.006000
      6 C6          20.8820     4.1110    26.5650 ca         1 U9C      -0.191000
      7 C7          18.0750     3.3310    25.3860 ca         1 U9C       0.235000
      8 C8          18.0140     4.7270    25.1970 ca         1 U9C      -0.089500
      9 C9          16.7720     5.3880    25.1620 ca         1 U9C      -0.162000
     10 C10         15.5810     4.6610    25.3060 ca         1 U9C       0.281000
     11 C11         15.6330     3.2700    25.4780 ca         1 U9C      -0.162000
     12 C12         16.8750     2.6070    25.5120 ca         1 U9C      -0.089500
     13 C           20.6050     3.0190    25.7120 ca         1 U9C       0.367000
     14 N1          25.4530     2.9660    25.8440 nd         1 U9C      -0.603200
     15 N2          25.2460     4.7970    27.1820 nv         1 U9C      -0.988200
     16 N3          14.3750     5.3050    25.2720 nv         1 U9C      -1.068000
     17 S           24.4950     1.8580    24.9830 ss         1 U9C       0.255500
     18 H1          21.4740     1.4050    24.5410 ha         1 U9C       0.122000
     19 H2          22.4210     5.3030    27.5340 ha         1 U9C       0.112000
     20 H3          20.0700     4.6760    27.0090 ha         1 U9C       0.126000
     21 H4          18.9250     5.3010    25.0570 ha         1 U9C       0.119000
     22 H5          16.7400     6.4650    25.0150 ha         1 U9C       0.115000
     23 H6          14.7150     2.6980    25.5840 ha         1 U9C       0.115000
     24 H7          16.9020     1.5290    25.6460 ha         1 U9C       0.119000
     25 H8          19.2170     1.6590    25.1470 hn         1 U9C       0.491000
     26 H9          26.2340     4.9380    27.0100 hn         1 U9C       0.464000
     27 H10         24.6950     5.6270    27.3590 hn         1 U9C       0.464000
     28 H11         14.3400     6.3230    25.2770 hn         1 U9C       0.447000
     29 H12         13.5200     4.8010    25.5040 hn         1 U9C       0.447000
     30 N           19.2940     2.6430    25.4100 nu         1 U9C      -0.990000
@<TRIPOS>BOND
     1     1     2 ar  
     2     1    13 ar  
     3     1    18 1   
     4     2     4 ar  
     5     2    17 1   
     6     3     4 1   
     7     3    14 2   
     8     3    15 1   
     9     4     5 ar  
    10     5     6 ar  
    11     5    19 1   
    12     6    13 ar  
    13     6    20 1   
    14     7     8 ar  
    15     7    12 ar  
    16     7    30 1   
    17     8     9 ar  
    18     8    21 1   
    19     9    10 ar  
    20     9    22 1   
    21    10    11 ar  
    22    10    16 1   
    23    11    12 ar  
    24    11    23 1   
    25    12    24 1   
    26    13    30 1   
    27    14    17 1   
    28    15    26 1   
    29    15    27 1   
    30    16    28 1   
    31    16    29 1   
    32    25    30 1   
@<TRIPOS>SUBSTRUCTURE
     1 U9C         1 TEMP              0 ****  ****    0 ROOT
