@<TRIPOS>MOLECULE
U9E
   42    45     1     0     0
SMALL
abcg2


@<TRIPOS>ATOM
      1 C13          7.8320     6.4840    11.5620 ca         1 U9E      -0.090800
      2 C18          5.7840     8.0230    10.4720 ca         1 U9E      -0.086000
      3 C17          7.0860     8.3910    10.1950 ca         1 U9E      -0.159000
      4 C16          8.0990     7.6110    10.7500 ca         1 U9E      -0.050200
      5 C15         10.0520     6.7790    11.4290 cc         1 U9E      -0.197100
      6 C19          5.4950     6.9040    11.2650 ca         1 U9E      -0.157000
      7 C21          6.6440     2.2490    10.5060 c3         1 U9E      -0.082100
      8 C11          6.1690     4.9580    12.6480 cc         1 U9E      -0.187000
      9 C12          6.4970     6.1130    11.8120 ca         1 U9E       0.082000
     10 C4           7.2130     0.9830    14.4990 ca         1 U9E       0.132000
     11 C5           7.3580    -0.3780    14.7340 ca         1 U9E      -0.121000
     12 C6           6.3240    -1.2390    14.4040 ca         1 U9E      -0.128000
     13 C7           5.1560    -0.7330    13.8460 ca         1 U9E      -0.120000
     14 C8           5.0340     0.6280    13.6220 ca         1 U9E      -0.072000
     15 C3           6.0570     1.5230    13.9390 ca         1 U9E       0.085000
     16 C2           5.9170     2.9570    13.6490 cd         1 U9E      -0.155000
     17 C1           6.5940     3.6410    12.6010 cd         1 U9E      -0.110300
     18 C9           5.0990     3.8680    14.2930 cc         1 U9E      -0.150600
     19 C10          4.1890     3.7640    15.4830 c          1 U9E       0.729600
     20 O2           4.1090     2.6530    16.0350 o          1 U9E      -0.710000
     21 O1           3.6010     4.8210    15.7970 o          1 U9E      -0.710000
     22 N1           5.2670     5.0580    13.6620 na         1 U9E      -0.069000
     23 C14          9.0990     5.9780    11.9890 cd         1 U9E      -0.208200
     24 N2           9.4540     7.7540    10.6840 na         1 U9E      -0.234700
     25 H1           4.9680     8.6040    10.0630 ha         1 U9E       0.099000
     26 H2           7.3100     9.2530     9.5800 ha         1 U9E       0.099000
     27 H3          11.1260     6.7290    11.5070 h4         1 U9E       0.200000
     28 H4           4.4580     6.6410    11.4380 ha         1 U9E       0.118000
     29 H5           8.1620     2.3130    12.0300 hc         1 U9E       0.036200
     30 H6           8.0670     3.7560    11.0600 hc         1 U9E       0.036200
     31 H7           7.2970     1.7800     9.7680 hc         1 U9E       0.024367
     32 H8           6.0360     1.4650    10.9590 hc         1 U9E       0.024367
     33 H9           5.9720     2.9260     9.9770 hc         1 U9E       0.024367
     34 H10          8.2700    -0.7590    15.1740 ha         1 U9E       0.107000
     35 H11          6.4330    -2.3000    14.5830 ha         1 U9E       0.094000
     36 H12          4.3430    -1.3980    13.5870 ha         1 U9E       0.098000
     37 H13          4.1270     1.0220    13.1800 ha         1 U9E       0.122000
     38 H15          4.8210     5.9070    13.9730 hn         1 U9E       0.361000
     39 H16          9.2800     5.1340    12.6350 ha         1 U9E       0.220000
     40 H17          9.9400     8.4760    10.1780 hn         1 U9E       0.335000
     41 CL1          8.5260     2.0300    14.9470 cl         1 U9E      -0.230000
     42 C20          7.4570     3.0020    11.5590 c3         1 U9E      -0.001100
@<TRIPOS>BOND
     1     1     4 ar  
     2     1     9 ar  
     3     1    23 1   
     4     2     3 ar  
     5     2     6 ar  
     6     2    25 1   
     7     3     4 ar  
     8     3    26 1   
     9     4    24 1   
    10     5    23 2   
    11     5    24 1   
    12     5    27 1   
    13     6     9 ar  
    14     6    28 1   
    15     7    31 1   
    16     7    32 1   
    17     7    33 1   
    18     7    42 1   
    19     8     9 1   
    20     8    17 2   
    21     8    22 1   
    22    10    11 ar  
    23    10    15 ar  
    24    10    41 1   
    25    11    12 ar  
    26    11    34 1   
    27    12    13 ar  
    28    12    35 1   
    29    13    14 ar  
    30    13    36 1   
    31    14    15 ar  
    32    14    37 1   
    33    15    16 1   
    34    16    17 1   
    35    16    18 2   
    36    17    42 1   
    37    18    19 1   
    38    18    22 1   
    39    19    20 1   
    40    19    21 1   
    41    22    38 1   
    42    23    39 1   
    43    24    40 1   
    44    29    42 1   
    45    30    42 1   
@<TRIPOS>SUBSTRUCTURE
     1 U9E         1 TEMP              0 ****  ****    0 ROOT
