@<TRIPOS>MOLECULE
U9E
   42    45     1     0     0
SMALL
No Charge or Current Charge


@<TRIPOS>ATOM
      1 C13          7.8310     6.5400    11.6200 ca         1 U9E      -0.090800
      2 C18          5.8250     7.7290    10.1160 ca         1 U9E      -0.086000
      3 C17          7.1630     8.1440     9.9430 ca         1 U9E      -0.159000
      4 C16          8.1460     7.5220    10.7230 ca         1 U9E      -0.050200
      5 C15         10.1270     6.9210    11.7130 cc         1 U9E      -0.197100
      6 C19          5.5030     6.7120    11.0490 ca         1 U9E      -0.157000
      7 C21          6.5820     2.3830    10.5700 c3         1 U9E      -0.082100
      8 C11          6.1850     5.0500    12.7900 cc         1 U9E      -0.187000
      9 C12          6.5140     6.0870    11.8140 ca         1 U9E       0.082000
     10 C4           7.3280     0.9430    14.2720 ca         1 U9E       0.132000
     11 C5           7.3940    -0.4580    14.3880 ca         1 U9E      -0.121000
     12 C6           6.2410    -1.2390    14.2110 ca         1 U9E      -0.128000
     13 C7           5.0140    -0.6190    13.9320 ca         1 U9E      -0.120000
     14 C8           4.9420     0.7810    13.8200 ca         1 U9E      -0.072000
     15 C3           6.0960     1.5770    13.9780 ca         1 U9E       0.085000
     16 C2           5.9990     3.0400    13.7930 cd         1 U9E      -0.155000
     17 C1           6.6050     3.7470    12.7100 cd         1 U9E      -0.110300
     18 C9           5.1090     3.8940    14.4360 cc         1 U9E      -0.150600
     19 C10          4.2240     3.5930    15.6020 c          1 U9E       0.729600
     20 O2           4.2680     2.5040    16.1540 o          1 U9E      -0.710000
     21 O1           3.4980     4.4950    15.9970 o          1 U9E      -0.710000
     22 N1           5.2380     5.1270    13.7990 na         1 U9E      -0.069000
     23 C14          9.0820     6.1760    12.2400 cd         1 U9E      -0.208200
     24 N2           9.5110     7.7600    10.7580 na         1 U9E      -0.234700
     25 H1           5.0350     8.1940     9.5310 ha         1 U9E       0.099000
     26 H2           7.4190     8.9260     9.2330 ha         1 U9E       0.099000
     27 H3          11.1940     6.9260    11.9250 h4         1 U9E       0.200000
     28 H4           4.4680     6.4030    11.1710 ha         1 U9E       0.118000
     29 H5           8.1820     2.4330    12.0070 hc         1 U9E       0.036200
     30 H6           8.0210     3.8940    11.0730 hc         1 U9E       0.036200
     31 H7           7.2130     1.9670     9.7750 hc         1 U9E       0.024367
     32 H8           6.0350     1.5570    11.0410 hc         1 U9E       0.024367
     33 H9           5.8540     3.0630    10.1110 hc         1 U9E       0.024367
     34 H10          8.3410    -0.9360    14.6270 ha         1 U9E       0.107000
     35 H11          6.2970    -2.3220    14.3010 ha         1 U9E       0.094000
     36 H12          4.1180    -1.2200    13.7990 ha         1 U9E       0.098000
     37 H13          3.9910     1.2520    13.5880 ha         1 U9E       0.122000
     38 H15          4.7120     5.9590    14.0490 hn         1 U9E       0.361000
     39 H16          9.1910     5.4200    13.0150 ha         1 U9E       0.220000
     40 H17          9.9920     8.4430    10.1800 hn         1 U9E       0.335000
     41 Cl1          8.7910     1.8750    14.6180 cl         1 U9E      -0.230000
     42 C20          7.4440     3.1300    11.6030 c3         1 U9E      -0.001100
@<TRIPOS>BOND
     1     1     4 ar  
     2     1     9 ar  
     3     1    23 1   
     4     2     3 ar  
     5     2     6 ar  
     6     2    25 1   
     7     3     4 ar  
     8     3    26 1   
     9     4    24 1   
    10     5    23 2   
    11     5    24 1   
    12     5    27 1   
    13     6     9 ar  
    14     6    28 1   
    15     7    31 1   
    16     7    32 1   
    17     7    33 1   
    18     7    42 1   
    19     8     9 1   
    20     8    17 2   
    21     8    22 1   
    22    10    11 ar  
    23    10    15 ar  
    24    10    41 1   
    25    11    12 ar  
    26    11    34 1   
    27    12    13 ar  
    28    12    35 1   
    29    13    14 ar  
    30    13    36 1   
    31    14    15 ar  
    32    14    37 1   
    33    15    16 1   
    34    16    17 1   
    35    16    18 2   
    36    17    42 1   
    37    18    19 1   
    38    18    22 1   
    39    19    20 1   
    40    19    21 1   
    41    22    38 1   
    42    23    39 1   
    43    24    40 1   
    44    29    42 1   
    45    30    42 1   
@<TRIPOS>SUBSTRUCTURE
     1 U9E         1 TEMP              0 ****  ****    0 ROOT
