@<TRIPOS>MOLECULE
U9G
   33    33     1     0     0
SMALL
No Charge or Current Charge


@<TRIPOS>ATOM
      1 O4          29.4500     1.8670    46.1040 oh         1 U9G      -0.716000
      2 C4          30.1330     1.0970    47.1160 c6         1 U9G       0.134300
      3 C5          29.1900     0.6700    48.2800 c6         1 U9G       0.175300
      4 O5          29.9410    -0.0620    49.2890 os         1 U9G      -0.451000
      5 C6          28.0050    -0.2360    47.8120 c3         1 U9G       0.225600
      6 O6          28.4930    -1.4200    47.1490 os         1 U9G      -0.598700
      7 S37         27.3490    -2.4810    46.6440 s6         1 U9G       1.500300
      8 O38         28.1230    -3.5490    45.9960 o          1 U9G      -0.709867
      9 O39         26.5090    -1.6970    45.7270 o          1 U9G      -0.709867
     10 O3A         26.6680    -2.8900    47.8810 o          1 U9G      -0.709867
     11 C3          31.3470     1.9140    47.6500 c6         1 U9G       0.102300
     12 O3          32.1850     2.2270    46.4980 os         1 U9G      -0.455000
     13 C3D         33.2580     3.1740    46.6570 c3         1 U9G       0.154900
     14 C2          32.0730     1.1090    48.7910 c6         1 U9G       0.148300
     15 O2          33.2410     1.7950    49.3500 os         1 U9G      -0.450000
     16 C3G         33.0750     3.0420    50.0570 c3         1 U9G       0.158900
     17 C1          31.0310     0.6540    49.8890 c6         1 U9G       0.352300
     18 O1          30.4440     1.7260    50.6290 oh         1 U9G      -0.752000
     19 H4          30.5320     0.1740    46.6670 h1         1 U9G       0.087700
     20 H5          28.7530     1.5690    48.7390 h1         1 U9G       0.035700
     21 H61         27.4080    -0.4950    48.6970 h1         1 U9G       0.044200
     22 H62         27.3670     0.3550    47.1410 h1         1 U9G       0.044200
     23 H3          30.9630     2.8550    48.0690 h1         1 U9G       0.056700
     24 H3D1        33.6580     3.4550    45.6740 h1         1 U9G       0.023033
     25 H3D2        32.9050     4.0870    47.1530 h1         1 U9G       0.023033
     26 H3D3        34.0840     2.7470    47.2370 h1         1 U9G       0.023033
     27 H2          32.4480     0.1840    48.3310 h1         1 U9G       0.107700
     28 H3G1        34.0500     3.5250    50.1960 h1         1 U9G       0.023033
     29 H3G2        32.4320     3.7380    49.5030 h1         1 U9G       0.023033
     30 H3G3        32.6470     2.8790    51.0530 h1         1 U9G       0.023033
     31 H1          31.5530    -0.0210    50.5850 h2         1 U9G       0.067700
     32 HO4         30.1730     2.2890    45.5800 ho         1 U9G       0.509000
     33 HO1         29.7860     1.2930    51.2170 ho         1 U9G       0.510000
@<TRIPOS>BOND
     1     1     2 1   
     2     1    32 1   
     3     2     3 1   
     4     2    11 1   
     5     2    19 1   
     6     3     4 1   
     7     3     5 1   
     8     3    20 1   
     9     4    17 1   
    10     5     6 1   
    11     5    21 1   
    12     5    22 1   
    13     6     7 1   
    14     7     8 1   
    15     7     9 1   
    16     7    10 1   
    17    11    12 1   
    18    11    14 1   
    19    11    23 1   
    20    12    13 1   
    21    13    24 1   
    22    13    25 1   
    23    13    26 1   
    24    14    15 1   
    25    14    17 1   
    26    14    27 1   
    27    15    16 1   
    28    16    28 1   
    29    16    29 1   
    30    16    30 1   
    31    17    18 1   
    32    17    31 1   
    33    18    33 1   
@<TRIPOS>SUBSTRUCTURE
     1 U9G         1 TEMP              0 ****  ****    0 ROOT
