@<TRIPOS>MOLECULE
U9G
   33    33     1     0     0
SMALL
bcc


@<TRIPOS>ATOM
      1 O4          29.5490     1.9010    46.3100 oh         1 U9G      -0.593800
      2 C4          30.2210     1.0990    47.2510 c6         1 U9G       0.111100
      3 C5          29.2150     0.7350    48.3440 c6         1 U9G       0.152100
      4 O5          29.8540     0.0230    49.3890 os         1 U9G      -0.404600
      5 C6          28.0660    -0.1190    47.8440 c3         1 U9G       0.202400
      6 O6          28.5920    -1.2880    47.2390 os         1 U9G      -0.575500
      7 S37         27.5620    -2.2940    46.4420 s6         1 U9G       1.500300
      8 O38         28.5010    -3.3100    45.9750 o          1 U9G      -0.709867
      9 O39         26.9570    -1.4900    45.3780 o          1 U9G      -0.709867
     10 O3A         26.6020    -2.7560    47.4480 o          1 U9G      -0.709867
     11 C3          31.4400     1.8170    47.8340 c6         1 U9G       0.079100
     12 O3          32.4060     1.9600    46.8150 os         1 U9G      -0.408600
     13 C3D         32.7170     3.2840    46.4540 c3         1 U9G       0.131700
     14 C2          32.0160     0.9660    48.9670 c6         1 U9G       0.125100
     15 O2          33.2330     1.4160    49.4950 os         1 U9G      -0.403600
     16 C3G         33.3190     2.6930    50.0880 c3         1 U9G       0.135700
     17 C1          30.9240     0.6900    50.0060 c6         1 U9G       0.305900
     18 O1          30.5310     1.8880    50.5910 oh         1 U9G      -0.629800
     19 H4          30.5810     0.1700    46.7880 h1         1 U9G       0.087700
     20 H5          28.7640     1.6620    48.7280 h1         1 U9G       0.035700
     21 H61         27.4160    -0.3720    48.6880 h1         1 U9G       0.044200
     22 H62         27.4750     0.4680    47.1350 h1         1 U9G       0.044200
     23 H3          31.1200     2.8000    48.2040 h1         1 U9G       0.056700
     24 H3D1        33.4430     3.2380    45.6430 h1         1 U9G       0.023033
     25 H3D2        31.8430     3.8380    46.1000 h1         1 U9G       0.023033
     26 H3D3        33.1640     3.8490    47.2790 h1         1 U9G       0.023033
     27 H2          32.2650    -0.0130    48.5400 h1         1 U9G       0.107700
     28 H3G1        34.3750     2.9670    50.0840 h1         1 U9G       0.023033
     29 H3G2        32.7760     3.4680    49.5410 h1         1 U9G       0.023033
     30 H3G3        32.9690     2.7040    51.1220 h1         1 U9G       0.023033
     31 H1          31.3000    -0.0150    50.7580 h2         1 U9G       0.067700
     32 HO4         30.0530     1.8950    45.4900 ho         1 U9G       0.410000
     33 HO1         30.0240     1.7020    51.3890 ho         1 U9G       0.411000
@<TRIPOS>BOND
     1     1     2 1   
     2     1    32 1   
     3     2     3 1   
     4     2    11 1   
     5     2    19 1   
     6     3     4 1   
     7     3     5 1   
     8     3    20 1   
     9     4    17 1   
    10     5     6 1   
    11     5    21 1   
    12     5    22 1   
    13     6     7 1   
    14     7     8 1   
    15     7     9 1   
    16     7    10 1   
    17    11    12 1   
    18    11    14 1   
    19    11    23 1   
    20    12    13 1   
    21    13    24 1   
    22    13    25 1   
    23    13    26 1   
    24    14    15 1   
    25    14    17 1   
    26    14    27 1   
    27    15    16 1   
    28    16    28 1   
    29    16    29 1   
    30    16    30 1   
    31    17    18 1   
    32    17    31 1   
    33    18    33 1   
@<TRIPOS>SUBSTRUCTURE
     1 U9G         1 TEMP              0 ****  ****    0 ROOT
