@<TRIPOS>MOLECULE
U9H
   37    40     1     0     0
SMALL
bcc


@<TRIPOS>ATOM
      1 C4          -3.5220     0.7420    12.4910 cy         1 U9H      -0.059700
      2 C14         -0.4430    -2.2470    19.2340 ca         1 U9H       0.028600
      3 C5          -3.0940    -0.1280    11.3320 cy         1 U9H      -0.075700
      4 C6          -4.2740    -0.5710    10.4370 cy         1 U9H      -0.088400
      5 C11         -0.8770    -1.0390    17.2570 ca         1 U9H      -0.029700
      6 C7          -3.9400     0.5890     9.4780 cy         1 U9H      -0.092400
      7 C8          -2.5510     0.6880    10.1380 cy         1 U9H      -0.088400
      8 C9          -2.3740     1.3050    13.3540 cy         1 U9H      -0.077400
      9 C10         -1.9390    -0.5630    15.0770 c          1 U9H       0.721500
     10 C12          0.4560    -1.2340    16.9110 ca         1 U9H       0.397200
     11 C13          0.8670    -2.4160    18.8210 ca         1 U9H       0.367200
     12 N1          -3.1710     1.2260    15.7790 ns         1 U9H      -0.570900
     13 N2          -1.7300    -0.3090    16.4120 n          1 U9H      -0.447600
     14 C3          -4.0780    -0.0030    13.7240 cy         1 U9H      -0.077400
     15 N3           1.2960    -1.9160    17.6720 nb         1 U9H      -0.636000
     16 C1          -2.4850     0.8010    16.8500 c          1 U9H       0.832500
     17 C2          -2.8880     0.5000    14.5750 cy         1 U9H       0.005400
     18 O2          -1.4510    -1.4630    14.4420 o          1 U9H      -0.558500
     19 C15         -1.3490    -1.5660    18.4510 ca         1 U9H      -0.128000
     20 H1          -4.1960     1.5260    12.1360 hc         1 U9H       0.062700
     21 H2          -2.4460    -0.9310    11.6960 hc         1 U9H       0.074700
     22 H3          -5.2670    -0.5820    10.8930 hc         1 U9H       0.051200
     23 H4          -4.0970    -1.5440     9.9780 hc         1 U9H       0.051200
     24 H5          -4.5530     1.4710     9.6680 hc         1 U9H       0.048200
     25 H6          -3.9720     0.3780     8.4090 hc         1 U9H       0.048200
     26 H7          -1.7920     0.1390     9.5780 hc         1 U9H       0.051200
     27 H8          -2.1600     1.6850    10.3550 hc         1 U9H       0.051200
     28 H9          -1.3660     1.0470    13.0240 hc         1 U9H       0.068950
     29 H10         -2.4130     2.3810    13.5250 hc         1 U9H       0.068950
     30 H11          0.8510    -0.8180    15.9920 h4         1 U9H       0.035100
     31 H12          1.5760    -2.9600    19.4350 h4         1 U9H       0.040100
     32 H13         -3.7550     2.0470    15.8110 hn         1 U9H       0.352500
     33 H14         -5.0330     0.3690    14.0920 hc         1 U9H       0.068950
     34 H15         -4.1460    -1.0870    13.6290 hc         1 U9H       0.068950
     35 H16         -2.3800    -1.4560    18.7600 ha         1 U9H       0.169000
     36 O1          -2.4750     1.2340    17.9770 o          1 U9H      -0.604500
     37 F1          -0.8340    -2.7560    20.4040 f          1 U9H      -0.128900
@<TRIPOS>BOND
     1     1     3 1   
     2     1     8 1   
     3     1    14 1   
     4     1    20 1   
     5     2    11 ar  
     6     2    19 ar  
     7     2    37 1   
     8     3     4 1   
     9     3     7 1   
    10     3    21 1   
    11     4     6 1   
    12     4    22 1   
    13     4    23 1   
    14     5    10 ar  
    15     5    13 1   
    16     5    19 ar  
    17     6     7 1   
    18     6    24 1   
    19     6    25 1   
    20     7    26 1   
    21     7    27 1   
    22     8    17 1   
    23     8    28 1   
    24     8    29 1   
    25     9    13 1   
    26     9    17 1   
    27     9    18 2   
    28    10    15 ar  
    29    10    30 1   
    30    11    15 ar  
    31    11    31 1   
    32    12    16 1   
    33    12    17 1   
    34    12    32 1   
    35    13    16 1   
    36    14    17 1   
    37    14    33 1   
    38    14    34 1   
    39    16    36 2   
    40    19    35 1   
@<TRIPOS>SUBSTRUCTURE
     1 U9H         1 TEMP              0 ****  ****    0 ROOT
