@<TRIPOS>MOLECULE
U9H
   37    40     1     0     0
SMALL
No Charge or Current Charge


@<TRIPOS>ATOM
      1 C4          -3.5420     0.8060    12.4760 cy         1 U9H      -0.059700
      2 C14         -0.5240    -2.1600    19.2850 ca         1 U9H       0.129000
      3 C5          -2.9320    -0.2160    11.3840 cy         1 U9H      -0.075700
      4 C6          -4.2630    -0.5690    10.6140 cy         1 U9H      -0.088400
      5 C11         -0.9320    -0.9950    17.2030 ca         1 U9H      -0.057000
      6 C7          -4.0720     0.7020     9.7120 cy         1 U9H      -0.092400
      7 C8          -2.5990     0.8220    10.2430 cy         1 U9H      -0.088400
      8 C9          -2.1900     1.1600    13.2370 cy         1 U9H      -0.077400
      9 C10         -1.9070    -0.4850    14.9370 c          1 U9H       0.579000
     10 C12          0.3950    -1.3270    16.8280 ca         1 U9H       0.331900
     11 C13          0.7790    -2.4410    18.8280 ca         1 U9H       0.301900
     12 N1          -3.2710     1.3390    15.6930 ns         1 U9H      -0.503900
     13 N2          -1.7920    -0.2340    16.3230 n          1 U9H      -0.221000
     14 C3          -3.8800    -0.2540    13.6140 cy         1 U9H      -0.077400
     15 N3           1.2420    -2.0330    17.6190 nb         1 U9H      -0.636000
     16 C1          -2.5930     0.8410    16.7670 c          1 U9H       0.623000
     17 C2          -2.9450     0.6340    14.5090 cy         1 U9H       0.005400
     18 O2          -1.2940    -1.3960    14.3870 o          1 U9H      -0.483000
     19 C15         -1.3950    -1.4260    18.4650 ca         1 U9H      -0.110000
     20 H1          -4.2610     1.6060    12.2560 hc         1 U9H       0.062700
     21 H2          -2.2140    -1.0050    11.6410 hc         1 U9H       0.074700
     22 H3          -5.1940    -0.6050    11.1910 hc         1 U9H       0.051200
     23 H4          -4.1940    -1.5070    10.0530 hc         1 U9H       0.051200
     24 H5          -4.7190     1.5460     9.9730 hc         1 U9H       0.048200
     25 H6          -4.1650     0.5270     8.6350 hc         1 U9H       0.048200
     26 H7          -1.8550     0.4480     9.5310 hc         1 U9H       0.051200
     27 H8          -2.2840     1.8290    10.5430 hc         1 U9H       0.051200
     28 H9          -1.2690     0.6510    12.9210 hc         1 U9H       0.068950
     29 H10         -1.9650     2.2310    13.2610 hc         1 U9H       0.068950
     30 H11          0.8030    -1.0000    15.8730 h4         1 U9H       0.035100
     31 H12          1.4720    -3.0080    19.4470 h4         1 U9H       0.040100
     32 H13         -3.8970     2.1330    15.7750 hn         1 U9H       0.352500
     33 H14         -4.9310    -0.2490    13.9230 hc         1 U9H       0.068950
     34 H15         -3.6070    -1.3040    13.4430 hc         1 U9H       0.068950
     35 H16         -2.4060    -1.2110    18.8040 ha         1 U9H       0.151000
     36 O1          -2.6710     1.2810    17.9020 o          1 U9H      -0.529000
     37 F1          -0.9360    -2.5920    20.4990 f          1 U9H      -0.164000
@<TRIPOS>BOND
     1     1     3 1   
     2     1     8 1   
     3     1    14 1   
     4     1    20 1   
     5     2    11 ar  
     6     2    19 ar  
     7     2    37 1   
     8     3     4 1   
     9     3     7 1   
    10     3    21 1   
    11     4     6 1   
    12     4    22 1   
    13     4    23 1   
    14     5    10 ar  
    15     5    13 1   
    16     5    19 ar  
    17     6     7 1   
    18     6    24 1   
    19     6    25 1   
    20     7    26 1   
    21     7    27 1   
    22     8    17 1   
    23     8    28 1   
    24     8    29 1   
    25     9    13 1   
    26     9    17 1   
    27     9    18 2   
    28    10    15 ar  
    29    10    30 1   
    30    11    15 ar  
    31    11    31 1   
    32    12    16 1   
    33    12    17 1   
    34    12    32 1   
    35    13    16 1   
    36    14    17 1   
    37    14    33 1   
    38    14    34 1   
    39    16    36 2   
    40    19    35 1   
@<TRIPOS>SUBSTRUCTURE
     1 U9H         1 TEMP              0 ****  ****    0 ROOT
