@<TRIPOS>MOLECULE
U9I
   52    54     1     0     0
SMALL
No Charge or Current Charge


@<TRIPOS>ATOM
      1 C1         124.2380   131.6390   155.3790 c3         1 U9I       0.169900
      2 C10        135.9430   136.2040   155.7480 ca         1 U9I       0.126000
      3 C11        135.1710   135.3010   154.9890 ca         1 U9I       0.125000
      4 C12        133.7740   135.4510   154.9280 ca         1 U9I      -0.079000
      5 C13        129.5570   133.3410   155.7910 c6         1 U9I       0.098700
      6 C14        130.7180   132.3050   155.5870 c3         1 U9I       0.160800
      7 C15        132.6910   131.4830   154.2870 c5         1 U9I       0.160300
      8 C16        133.1830   131.5930   152.8120 c5         1 U9I      -0.080400
      9 C17        132.0920   132.4530   152.1120 c5         1 U9I      -0.080400
     10 C18        130.8830   132.2720   153.0520 c5         1 U9I       0.160300
     11 C19        128.2440   132.8260   155.1180 c6         1 U9I       0.103000
     12 C2         125.7780   133.4800   155.1960 c          1 U9I       0.640100
     13 C3         127.5460   135.2440   154.9150 c6         1 U9I       0.092000
     14 C4         129.0210   135.4160   154.4730 c6         1 U9I       0.090000
     15 C5         130.9010   135.4410   156.1760 c          1 U9I       0.603100
     16 C6         131.6230   136.6550   155.5600 c3         1 U9I      -0.106100
     17 C7         133.1390   136.5000   155.6230 ca         1 U9I      -0.055300
     18 C8         133.9170   137.4000   156.3790 ca         1 U9I      -0.086000
     19 C9         135.3130   137.2520   156.4400 ca         1 U9I      -0.094000
     20 N1         127.1380   133.8280   155.1120 n          1 U9I      -0.408800
     21 N2         129.9670   134.7270   155.3930 n          1 U9I      -0.395800
     22 N3         131.5540   132.4310   154.3570 n3         1 U9I      -0.732600
     23 O1         125.5890   132.1280   155.2900 os         1 U9I      -0.461100
     24 O2         124.8730   134.3020   155.1810 o          1 U9I      -0.543000
     25 O3         131.1660   135.0800   157.3180 o          1 U9I      -0.602100
     26 Cl2        135.9320   133.9750   154.1100 cl         1 U9I      -0.183000
     27 H2         124.2310   130.5440   155.4490 h1         1 U9I       0.050367
     28 H3         123.7350   132.0400   156.2690 h1         1 U9I       0.050367
     29 H1         123.6580   131.9270   154.4930 h1         1 U9I       0.050367
     30 H12        133.1850   134.7490   154.3430 ha         1 U9I       0.131000
     31 H13        129.3420   133.3570   156.8690 h1         1 U9I       0.080700
     32 H15        130.2950   131.2930   155.6550 h1         1 U9I       0.049200
     33 H14        131.3820   132.4140   156.4560 h1         1 U9I       0.049200
     34 H16        132.3620   130.4560   154.5030 h1         1 U9I       0.035700
     35 H17        133.4830   131.7400   155.0040 h1         1 U9I       0.035700
     36 H19        133.2650   130.5990   152.3580 hc         1 U9I       0.047700
     37 H18        134.1700   132.0600   152.7390 hc         1 U9I       0.047700
     38 H20        132.3920   133.5060   152.0610 hc         1 U9I       0.047700
     39 H21        131.8820   132.1210   151.0890 hc         1 U9I       0.047700
     40 H22        130.1220   133.0400   152.8660 h1         1 U9I       0.035700
     41 H23        130.4220   131.2800   152.9440 h1         1 U9I       0.035700
     42 H24        127.9340   131.9170   155.6510 h1         1 U9I       0.064700
     43 H25        128.4350   132.5300   154.0800 h1         1 U9I       0.064700
     44 H4         127.3920   135.7860   155.8590 h1         1 U9I       0.060700
     45 H5         126.8960   135.7100   154.1610 h1         1 U9I       0.060700
     46 H6         129.1490   135.0150   153.4580 h1         1 U9I       0.064200
     47 H7         129.2260   136.4930   154.4250 h1         1 U9I       0.064200
     48 H8         131.3230   136.8020   154.5180 hc         1 U9I       0.067700
     49 H9         131.3030   137.5440   156.1150 hc         1 U9I       0.067700
     50 H10        133.4410   138.2140   156.9220 ha         1 U9I       0.121000
     51 H11        135.9080   137.9490   157.0250 ha         1 U9I       0.133000
     52 Cl1        137.6980   136.0460   155.8470 cl         1 U9I      -0.182000
@<TRIPOS>BOND
     1     1    23 1   
     2     1    27 1   
     3     1    28 1   
     4     1    29 1   
     5     2     3 ar  
     6     2    19 ar  
     7     2    52 1   
     8     3     4 ar  
     9     3    26 1   
    10     4    17 ar  
    11     4    30 1   
    12     5     6 1   
    13     5    11 1   
    14     5    21 1   
    15     5    31 1   
    16     6    22 1   
    17     6    32 1   
    18     6    33 1   
    19     7     8 1   
    20     7    22 1   
    21     7    34 1   
    22     7    35 1   
    23     8     9 1   
    24     8    36 1   
    25     8    37 1   
    26     9    10 1   
    27     9    38 1   
    28     9    39 1   
    29    10    22 1   
    30    10    40 1   
    31    10    41 1   
    32    11    20 1   
    33    11    42 1   
    34    11    43 1   
    35    12    20 1   
    36    12    23 1   
    37    12    24 2   
    38    13    14 1   
    39    13    20 1   
    40    13    44 1   
    41    13    45 1   
    42    14    21 1   
    43    14    46 1   
    44    14    47 1   
    45    15    16 1   
    46    15    21 1   
    47    15    25 2   
    48    16    17 1   
    49    16    48 1   
    50    16    49 1   
    51    17    18 ar  
    52    18    19 ar  
    53    18    50 1   
    54    19    51 1   
@<TRIPOS>SUBSTRUCTURE
     1 U9I         1 TEMP              0 ****  ****    0 ROOT
