@<TRIPOS>MOLECULE
U9I
   52    54     1     0     0
SMALL
abcg2


@<TRIPOS>ATOM
      1 C1         125.1610   133.5110   157.3450 c3         1 U9I       0.169900
      2 C10        135.0300   137.5560   157.7340 ca         1 U9I       0.126000
      3 C11        135.3650   136.7890   156.6210 ca         1 U9I       0.125000
      4 C12        134.3690   136.3250   155.7700 ca         1 U9I      -0.079000
      5 C13        129.8550   132.8980   155.2460 c6         1 U9I       0.098700
      6 C14        130.6900   131.6970   154.7780 c3         1 U9I       0.160800
      7 C15        132.3330   131.0100   153.1160 c5         1 U9I       0.160300
      8 C16        132.4070   130.9610   151.5940 c5         1 U9I      -0.080400
      9 C17        130.9280   130.8210   151.1590 c5         1 U9I      -0.080400
     10 C18        130.1130   131.0980   152.4370 c5         1 U9I       0.160300
     11 C19        128.3820   132.8450   154.8140 c6         1 U9I       0.103000
     12 C2         126.7030   134.4040   155.7910 c          1 U9I       0.640100
     13 C3         128.3330   135.2550   154.2190 c6         1 U9I       0.092000
     14 C4         129.7240   134.8470   153.7390 c6         1 U9I       0.090000
     15 C5         131.4520   134.7110   155.5340 c          1 U9I       0.603100
     16 C6         131.9570   136.0930   155.1070 c3         1 U9I      -0.106100
     17 C7         133.0310   136.6180   156.0160 ca         1 U9I      -0.055300
     18 C8         132.7080   137.3900   157.1300 ca         1 U9I      -0.086000
     19 C9         133.6960   137.8570   157.9830 ca         1 U9I      -0.094000
     20 N1         127.7560   134.1490   154.9870 n          1 U9I      -0.408800
     21 N2         130.4350   134.1810   154.8220 n          1 U9I      -0.395800
     22 N3         131.0680   131.7020   153.3740 n3         1 U9I      -0.732600
     23 O1         126.2960   133.3180   156.4850 os         1 U9I      -0.461100
     24 O2         126.1680   135.5010   155.8900 o          1 U9I      -0.543000
     25 O3         131.9580   134.1120   156.4850 o          1 U9I      -0.602100
     26 CL2        137.0230   136.3940   156.2660 cl         1 U9I      -0.183000
     27 H2         124.9800   132.5430   157.8030 h1         1 U9I       0.050367
     28 H3         125.3820   134.2550   158.1100 h1         1 U9I       0.050367
     29 H1         124.2920   133.8250   156.7680 h1         1 U9I       0.050367
     30 H12        134.6480   135.7310   154.9100 ha         1 U9I       0.131000
     31 H13        129.8780   132.8890   156.3370 h1         1 U9I       0.080700
     32 H15        130.1510   130.7740   155.0520 h1         1 U9I       0.049200
     33 H14        131.6080   131.7130   155.3630 h1         1 U9I       0.049200
     34 H16        132.3220   129.9870   153.5330 h1         1 U9I       0.035700
     35 H17        133.1620   131.5500   153.5760 h1         1 U9I       0.035700
     36 H19        133.0300   130.1420   151.2360 hc         1 U9I       0.047700
     37 H18        132.8280   131.8940   151.2150 hc         1 U9I       0.047700
     38 H20        130.6820   131.5300   150.3690 hc         1 U9I       0.047700
     39 H21        130.7130   129.8230   150.7770 hc         1 U9I       0.047700
     40 H22        129.2720   131.7630   152.2470 h1         1 U9I       0.035700
     41 H23        129.7070   130.1600   152.8490 h1         1 U9I       0.035700
     42 H24        127.8680   132.1100   155.4220 h1         1 U9I       0.064700
     43 H25        128.2770   132.5430   153.7740 h1         1 U9I       0.064700
     44 H4         128.4040   136.1290   154.8660 h1         1 U9I       0.060700
     45 H5         127.7000   135.5120   153.3640 h1         1 U9I       0.060700
     46 H6         129.6650   134.1630   152.8930 h1         1 U9I       0.064200
     47 H7         130.2630   135.7240   153.4000 h1         1 U9I       0.064200
     48 H8         132.3310   136.0230   154.0830 hc         1 U9I       0.067700
     49 H9         131.1170   136.7900   155.0930 hc         1 U9I       0.067700
     50 H10        131.6720   137.6300   157.3350 ha         1 U9I       0.121000
     51 H11        133.4410   138.4560   158.8460 ha         1 U9I       0.133000
     52 CL1        136.2490   138.1550   158.8230 cl         1 U9I      -0.182000
@<TRIPOS>BOND
     1     1    23 1   
     2     1    27 1   
     3     1    28 1   
     4     1    29 1   
     5     2     3 ar  
     6     2    19 ar  
     7     2    52 1   
     8     3     4 ar  
     9     3    26 1   
    10     4    17 ar  
    11     4    30 1   
    12     5     6 1   
    13     5    11 1   
    14     5    21 1   
    15     5    31 1   
    16     6    22 1   
    17     6    32 1   
    18     6    33 1   
    19     7     8 1   
    20     7    22 1   
    21     7    34 1   
    22     7    35 1   
    23     8     9 1   
    24     8    36 1   
    25     8    37 1   
    26     9    10 1   
    27     9    38 1   
    28     9    39 1   
    29    10    22 1   
    30    10    40 1   
    31    10    41 1   
    32    11    20 1   
    33    11    42 1   
    34    11    43 1   
    35    12    20 1   
    36    12    23 1   
    37    12    24 2   
    38    13    14 1   
    39    13    20 1   
    40    13    44 1   
    41    13    45 1   
    42    14    21 1   
    43    14    46 1   
    44    14    47 1   
    45    15    16 1   
    46    15    21 1   
    47    15    25 2   
    48    16    17 1   
    49    16    48 1   
    50    16    49 1   
    51    17    18 ar  
    52    18    19 ar  
    53    18    50 1   
    54    19    51 1   
@<TRIPOS>SUBSTRUCTURE
     1 U9I         1 TEMP              0 ****  ****    0 ROOT
