@<TRIPOS>MOLECULE
U9J
   31    31     1     0     0
SMALL
No Charge or Current Charge


@<TRIPOS>ATOM
      1 O4          26.0650     3.2170    59.4250 oh         1 U9J      -0.702000
      2 C4          26.5430     2.9930    60.7710 c6         1 U9J       0.144300
      3 C5          26.9280     1.4920    61.0610 c6         1 U9J       0.181300
      4 O5          25.7860     0.8240    61.6580 os         1 U9J      -0.393000
      5 C6          27.4450     0.7010    59.7920 c3         1 U9J       0.407300
      6 O6A         27.7510    -0.6540    60.0680 oh         1 U9J      -0.711500
      7 O6B         26.4900     0.6440    58.7530 oh         1 U9J      -0.711500
      8 C3          25.4380     3.4920    61.7640 c6         1 U9J       0.112300
      9 O3          25.4140     4.9430    61.7650 os         1 U9J      -0.468000
     10 C3M         24.1320     5.5760    61.9530 c3         1 U9J       0.147900
     11 C2          25.6440     2.8250    63.1630 c6         1 U9J       0.078300
     12 O2          24.7690     3.3070    64.2180 os         1 U9J      -0.460000
     13 C2M         25.2330     4.4350    64.9890 c3         1 U9J       0.146900
     14 C1          25.4900     1.2670    63.0020 c6         1 U9J       0.386300
     15 O1          26.3550     0.5750    63.9040 oh         1 U9J      -0.733000
     16 H4          27.4510     3.5930    60.9360 h1         1 U9J       0.039700
     17 H5          27.7530     1.4810    61.7890 h1         1 U9J       0.066700
     18 H61         28.3460     1.2050    59.4210 h2         1 U9J       0.019700
     19 H6O         28.2630    -0.9600    59.2890 ho         1 U9J       0.499500
     20 H65         26.0660     1.5410    58.8150 ho         1 U9J       0.499500
     21 H3          24.4690     3.1380    61.3770 h1         1 U9J       0.075700
     22 H681        24.2490     6.6660    62.0060 h1         1 U9J       0.035033
     23 H682        23.4610     5.3470    61.1150 h1         1 U9J       0.035033
     24 H683        23.6460     5.2400    62.8770 h1         1 U9J       0.035033
     25 H4O         26.6810     3.0240    63.4740 h1         1 U9J       0.057700
     26 H6B1        24.4620     4.7510    65.7030 h1         1 U9J       0.035033
     27 H6B2        26.1330     4.1690    65.5580 h1         1 U9J       0.035033
     28 H6B3        25.4760     5.2910    64.3490 h1         1 U9J       0.035033
     29 H1O         24.4440     0.9970    63.2190 h2         1 U9J       0.073700
     30 H6          25.8330     4.1760    59.3790 ho         1 U9J       0.511000
     31 HO1         26.0630     0.8520    64.8020 ho         1 U9J       0.521000
@<TRIPOS>BOND
     1     1     2 1   
     2     1    30 1   
     3     2     3 1   
     4     2     8 1   
     5     2    16 1   
     6     3     4 1   
     7     3     5 1   
     8     3    17 1   
     9     4    14 1   
    10     5     6 1   
    11     5     7 1   
    12     5    18 1   
    13     6    19 1   
    14     7    20 1   
    15     8     9 1   
    16     8    11 1   
    17     8    21 1   
    18     9    10 1   
    19    10    22 1   
    20    10    23 1   
    21    10    24 1   
    22    11    12 1   
    23    11    14 1   
    24    11    25 1   
    25    12    13 1   
    26    13    26 1   
    27    13    27 1   
    28    13    28 1   
    29    14    15 1   
    30    14    29 1   
    31    15    31 1   
@<TRIPOS>SUBSTRUCTURE
     1 U9J         1 TEMP              0 ****  ****    0 ROOT
