@<TRIPOS>MOLECULE
U9J
   31    31     1     0     0
SMALL
bcc


@<TRIPOS>ATOM
      1 O4          26.0150     3.2690    59.4490 oh         1 U9J      -0.579800
      2 C4          26.4470     3.0930    60.7750 c6         1 U9J       0.121100
      3 C5          26.8420     1.6370    61.0760 c6         1 U9J       0.158100
      4 O5          25.7670     0.9310    61.6690 os         1 U9J      -0.346600
      5 C6          27.3200     0.8510    59.8630 c3         1 U9J       0.360900
      6 O6A         28.0220    -0.2590    60.3480 oh         1 U9J      -0.589300
      7 O6B         26.2200     0.4690    59.0980 oh         1 U9J      -0.589300
      8 C3          25.3770     3.5350    61.7780 c6         1 U9J       0.089100
      9 O3          25.3830     4.9420    61.8350 os         1 U9J      -0.421600
     10 C3M         24.1100     5.5410    61.9400 c3         1 U9J       0.124700
     11 C2          25.6720     2.8690    63.1190 c6         1 U9J       0.055100
     12 O2          24.8400     3.3010    64.1660 os         1 U9J      -0.413600
     13 C2M         25.4110     4.2600    65.0290 c3         1 U9J       0.123700
     14 C1          25.4360     1.3590    62.9480 c6         1 U9J       0.339900
     15 O1          26.1700     0.5960    63.8630 oh         1 U9J      -0.610800
     16 H4          27.3450     3.6990    60.9650 h1         1 U9J       0.039700
     17 H5          27.6910     1.6790    61.7690 h1         1 U9J       0.066700
     18 H61         27.9920     1.4970    59.2820 h2         1 U9J       0.019700
     19 H6O         28.5020    -0.6620    59.6170 ho         1 U9J       0.400500
     20 H65         26.4830     0.4140    58.1750 ho         1 U9J       0.400500
     21 H3          24.3990     3.1820    61.4130 h1         1 U9J       0.075700
     22 H681        24.2510     6.6190    61.8700 h1         1 U9J       0.035033
     23 H682        23.4470     5.2280    61.1260 h1         1 U9J       0.035033
     24 H683        23.6130     5.3180    62.8870 h1         1 U9J       0.035033
     25 H4O         26.7270     3.0430    63.3830 h1         1 U9J       0.057700
     26 H6B1        24.7060     4.4260    65.8430 h1         1 U9J       0.035033
     27 H6B2        26.3550     3.9080    65.4580 h1         1 U9J       0.035033
     28 H6B3        25.5980     5.2160    64.5330 h1         1 U9J       0.035033
     29 H1O         24.3590     1.1700    63.0630 h2         1 U9J       0.073700
     30 H6          25.9190     4.2160    59.3040 ho         1 U9J       0.412000
     31 HO1         25.8620     0.8020    64.7530 ho         1 U9J       0.422000
@<TRIPOS>BOND
     1     1     2 1   
     2     1    30 1   
     3     2     3 1   
     4     2     8 1   
     5     2    16 1   
     6     3     4 1   
     7     3     5 1   
     8     3    17 1   
     9     4    14 1   
    10     5     6 1   
    11     5     7 1   
    12     5    18 1   
    13     6    19 1   
    14     7    20 1   
    15     8     9 1   
    16     8    11 1   
    17     8    21 1   
    18     9    10 1   
    19    10    22 1   
    20    10    23 1   
    21    10    24 1   
    22    11    12 1   
    23    11    14 1   
    24    11    25 1   
    25    12    13 1   
    26    13    26 1   
    27    13    27 1   
    28    13    28 1   
    29    14    15 1   
    30    14    29 1   
    31    15    31 1   
@<TRIPOS>SUBSTRUCTURE
     1 U9J         1 TEMP              0 ****  ****    0 ROOT
