@<TRIPOS>MOLECULE
U9K
   59    61     1     0     0
SMALL
bcc


@<TRIPOS>ATOM
      1 N1         -37.1000   -15.0870    15.0900 na         1 U9K      -0.185900
      2 N2         -35.3950   -14.1510    16.1320 nc         1 U9K      -0.640000
      3 C3         -35.2730   -13.9370    14.7930 cc         1 U9K       0.355200
      4 N4         -33.5490   -12.5310     7.7320 nz         1 U9K      -0.838600
      5 C6         -37.0830   -13.3650    12.0870 ca         1 U9K      -0.148000
      6 C7         -37.3990   -13.3660    10.7430 ca         1 U9K       0.158900
      7 C9         -36.8990   -15.6780    10.5790 ca         1 U9K      -0.095000
      8 C10        -36.5340   -15.7090    11.9220 ca         1 U9K      -0.159300
      9 C11        -35.9890   -16.9840    12.4930 c3         1 U9K       0.188100
     10 C12        -34.1750   -18.6390    12.4790 c6         1 U9K       0.155800
     11 C13        -32.8900   -19.1090    11.8260 c6         1 U9K      -0.317600
     12 C14        -32.2600   -16.3080    11.6740 c6         1 U9K      -0.425200
     13 C15        -32.3320   -16.1530    10.1490 c3         1 U9K      -0.030400
     14 C16        -33.1270   -14.9640     9.6160 c3         1 U9K      -0.085400
     15 C18        -34.0370   -13.9160     7.4730 c3         1 U9K       0.133800
     16 C19        -31.3490   -15.2310    12.3610 c          1 U9K       0.950600
     17 C20        -33.6300   -16.2090    12.3600 c6         1 U9K       0.152800
     18 C1         -38.3550   -15.7780    14.8940 c3         1 U9K       0.022600
     19 C2         -36.5000   -14.8380    16.2730 cd         1 U9K       0.425400
     20 C4         -36.3170   -14.5120    14.1200 cd         1 U9K      -0.273600
     21 C5         -36.6490   -14.5420    12.6890 ca         1 U9K       0.082000
     22 C8         -37.3290   -14.5090     9.9730 ca         1 U9K      -0.189000
     23 N3         -34.6010   -17.2900    11.9840 nx         1 U9K      -0.706400
     24 P1         -31.5140   -17.9550    12.0690 p5         1 U9K       1.230100
     25 O1         -31.3460   -17.8870    13.6510 oh         1 U9K      -0.798400
     26 O2         -30.3030   -18.2820    11.2630 o          1 U9K      -0.747300
     27 C17        -33.1350   -14.9650     8.0910 c3         1 U9K      -0.117400
     28 O3         -31.1290   -15.4360    13.5940 o          1 U9K      -0.740300
     29 O4         -30.9170   -14.3000    11.6950 o          1 U9K      -0.740300
     30 H5         -34.4430   -13.3920    14.3670 h4         1 U9K       0.055100
     31 H24        -34.1600   -11.8350     7.3030 hn         1 U9K       0.460800
     32 H25        -33.5110   -12.3130     8.7290 hn         1 U9K       0.460800
     33 H26        -32.6130   -12.3820     7.3530 hn         1 U9K       0.460800
     34 H6         -37.1770   -12.4570    12.6680 ha         1 U9K       0.184000
     35 H8         -36.8370   -16.5830     9.9850 ha         1 U9K       0.135000
     36 H9         -35.9130   -16.9680    13.5790 hx         1 U9K       0.100700
     37 H10        -36.6090   -17.8330    12.2060 hx         1 U9K       0.100700
     38 H12        -34.9860   -19.3310    12.2600 hx         1 U9K       0.094200
     39 H13        -34.0750   -18.5550    13.5610 hx         1 U9K       0.094200
     40 H15        -33.0370   -19.2740    10.7560 hc         1 U9K       0.111200
     41 H14        -32.6200   -20.0750    12.2580 hc         1 U9K       0.111200
     42 H17        -32.7490   -17.0620     9.6970 hc         1 U9K       0.052700
     43 H16        -31.3100   -16.0950     9.7700 hc         1 U9K       0.052700
     44 H19        -32.6960   -14.0410    10.0060 hc         1 U9K       0.046700
     45 H18        -34.1660   -14.9960     9.9580 hc         1 U9K       0.046700
     46 H23        -35.0480   -13.9700     7.8740 hx         1 U9K       0.096700
     47 H22        -34.0880   -14.0250     6.3920 hx         1 U9K       0.096700
     48 H28        -33.5490   -16.2480    13.4450 hx         1 U9K       0.103200
     49 H27        -34.0940   -15.2590    12.1010 hx         1 U9K       0.103200
     50 H1         -38.8220   -15.9390    15.8620 h1         1 U9K       0.058700
     51 H2         -39.0250   -15.1800    14.2790 h1         1 U9K       0.058700
     52 H3         -38.2070   -16.7450    14.4170 h1         1 U9K       0.058700
     53 H4         -36.9220   -15.1810    17.2060 h5         1 U9K       0.072100
     54 H7         -37.6020   -14.4920     8.9260 ha         1 U9K       0.157000
     55 H11        -34.6660   -17.3450    10.9640 hn         1 U9K       0.423800
     56 H29        -31.2360   -16.8740    13.8590 ho         1 U9K       0.532000
     57 H21        -33.5000   -15.9300     7.7310 hc         1 U9K       0.087700
     58 H20        -32.1190   -14.8570     7.7000 hc         1 U9K       0.087700
     59 F1         -37.8000   -12.2220    10.1790 f          1 U9K      -0.124900
@<TRIPOS>BOND
     1     1    18 1   
     2     1    19 1   
     3     1    20 1   
     4     2     3 1   
     5     2    19 2   
     6     3    20 2   
     7     3    30 1   
     8     4    15 1   
     9     4    31 1   
    10     4    32 1   
    11     4    33 1   
    12     5     6 ar  
    13     5    21 ar  
    14     5    34 1   
    15     6    22 ar  
    16     6    59 1   
    17     7     8 ar  
    18     7    22 ar  
    19     7    35 1   
    20     8     9 1   
    21     8    21 ar  
    22     9    23 1   
    23     9    36 1   
    24     9    37 1   
    25    10    11 1   
    26    10    23 1   
    27    10    38 1   
    28    10    39 1   
    29    11    24 1   
    30    11    40 1   
    31    11    41 1   
    32    12    13 1   
    33    12    16 1   
    34    12    17 1   
    35    12    24 1   
    36    13    14 1   
    37    13    42 1   
    38    13    43 1   
    39    14    27 1   
    40    14    44 1   
    41    14    45 1   
    42    15    27 1   
    43    15    46 1   
    44    15    47 1   
    45    16    28 1   
    46    16    29 1   
    47    17    23 1   
    48    17    48 1   
    49    17    49 1   
    50    18    50 1   
    51    18    51 1   
    52    18    52 1   
    53    19    53 1   
    54    20    21 1   
    55    22    54 1   
    56    23    55 1   
    57    24    25 1   
    58    24    26 2   
    59    25    56 1   
    60    27    57 1   
    61    27    58 1   
@<TRIPOS>SUBSTRUCTURE
     1 U9K         1 TEMP              0 ****  ****    0 ROOT
