@<TRIPOS>MOLECULE
U9K
   59    61     1     0     0
SMALL
No Charge or Current Charge


@<TRIPOS>ATOM
      1 N1         -36.6850   -14.9290    14.8340 na         1 U9K      -0.164500
      2 N2         -35.5510   -13.1190    15.4720 nc         1 U9K      -0.640000
      3 C3         -35.6290   -13.1620    14.1110 cc         1 U9K       0.289900
      4 N4         -33.4980   -12.1070     8.5380 nz         1 U9K      -0.976000
      5 C6         -36.9280   -13.5310    11.4160 ca         1 U9K      -0.130000
      6 C7         -37.3080   -13.7580    10.0880 ca         1 U9K       0.194000
      7 C9         -36.9940   -16.1390    10.3960 ca         1 U9K      -0.077000
      8 C10        -36.6130   -15.9230    11.7350 ca         1 U9K      -0.159300
      9 C11        -36.0470   -17.1040    12.5000 c3         1 U9K       0.159900
     10 C12        -34.2280   -18.8460    12.4250 c6         1 U9K       0.127600
     11 C13        -32.9570   -19.2270    11.6650 c6         1 U9K      -0.475400
     12 C14        -32.3340   -16.4890    11.7910 c6         1 U9K      -0.583000
     13 C15        -32.5890   -16.1960    10.2570 c3         1 U9K      -0.030400
     14 C16        -33.2920   -14.8500     9.9470 c3         1 U9K      -0.085400
     15 C18        -34.2630   -13.3260     8.0970 c3         1 U9K       0.105600
     16 C19        -31.2900   -15.5530    12.3840 c          1 U9K       0.740000
     17 C20        -33.6410   -16.3970    12.5930 c6         1 U9K       0.124600
     18 C1         -37.7070   -15.9840    14.9630 c3         1 U9K       0.051900
     19 C2         -36.1770   -14.2040    15.9040 cd         1 U9K       0.425400
     20 C4         -36.2340   -14.3120    13.6670 cd         1 U9K      -0.259000
     21 C5         -36.6100   -14.6070    12.2680 ca         1 U9K       0.082000
     22 C8         -37.3520   -15.0590     9.5760 ca         1 U9K      -0.171000
     23 N3         -34.6290   -17.4240    12.0690 nx         1 U9K      -0.677000
     24 P1         -31.5730   -18.1140    12.0310 p5         1 U9K       1.316400
     25 O1         -31.4620   -18.2900    13.6110 oh         1 U9K      -0.807400
     26 O2         -30.3260   -18.4080    11.2800 o          1 U9K      -0.518000
     27 C17        -33.5060   -14.6220     8.4330 c3         1 U9K      -0.117400
     28 O3         -31.0390   -15.7340    13.5650 o          1 U9K      -0.635000
     29 O4         -30.5250   -14.9820    11.6290 o          1 U9K      -0.635000
     30 H5         -35.2150   -12.3540    13.5210 h4         1 U9K       0.055100
     31 H24        -33.9730   -11.2230     8.2950 hn         1 U9K       0.516000
     32 H25        -33.3440   -12.0660     9.5560 hn         1 U9K       0.516000
     33 H26        -32.5620   -12.0390     8.1090 hn         1 U9K       0.516000
     34 H6         -36.9170   -12.5110    11.7890 ha         1 U9K       0.166000
     35 H8         -36.9850   -17.1460     9.9810 ha         1 U9K       0.117000
     36 H9         -36.0220   -16.9160    13.5730 hx         1 U9K       0.100700
     37 H10        -36.6710   -17.9850    12.3280 hx         1 U9K       0.100700
     38 H12        -35.0590   -19.5100    12.1620 hx         1 U9K       0.094200
     39 H13        -34.0870   -18.8940    13.5110 hx         1 U9K       0.094200
     40 H15        -33.1200   -19.2260    10.5820 hc         1 U9K       0.111200
     41 H14        -32.6300   -20.2350    11.9460 hc         1 U9K       0.111200
     42 H17        -33.1990   -16.9920     9.8140 hc         1 U9K       0.052700
     43 H16        -31.6440   -16.2310     9.6990 hc         1 U9K       0.052700
     44 H19        -32.6970   -14.0280    10.3600 hc         1 U9K       0.046700
     45 H18        -34.2670   -14.8180    10.4430 hc         1 U9K       0.046700
     46 H23        -35.2400   -13.3360     8.5900 hx         1 U9K       0.096700
     47 H22        -34.4250   -13.2720     7.0150 hx         1 U9K       0.096700
     48 H28        -33.4970   -16.5810    13.6640 hx         1 U9K       0.103200
     49 H27        -34.0970   -15.4050    12.4910 hx         1 U9K       0.103200
     50 H1         -38.4230   -15.7070    15.7460 h1         1 U9K       0.058700
     51 H2         -38.2520   -16.1020    14.0180 h1         1 U9K       0.058700
     52 H3         -37.2310   -16.9340    15.2370 h1         1 U9K       0.058700
     53 H4         -36.3630   -14.4830    16.9350 h5         1 U9K       0.072100
     54 H7         -37.6410   -15.2270     8.5410 ha         1 U9K       0.139000
     55 H11        -34.6380   -17.3470    11.0330 hn         1 U9K       0.479000
     56 H29        -31.2690   -17.3300    13.7780 ho         1 U9K       0.541000
     57 H21        -34.0760   -15.4640     8.0220 hc         1 U9K       0.087700
     58 H20        -32.5370   -14.6190     7.9180 hc         1 U9K       0.087700
     59 F1         -37.6290   -12.7140     9.2930 f          1 U9K      -0.160000
@<TRIPOS>BOND
     1     1    18 1   
     2     1    19 1   
     3     1    20 1   
     4     2     3 1   
     5     2    19 2   
     6     3    20 2   
     7     3    30 1   
     8     4    15 1   
     9     4    31 1   
    10     4    32 1   
    11     4    33 1   
    12     5     6 ar  
    13     5    21 ar  
    14     5    34 1   
    15     6    22 ar  
    16     6    59 1   
    17     7     8 ar  
    18     7    22 ar  
    19     7    35 1   
    20     8     9 1   
    21     8    21 ar  
    22     9    23 1   
    23     9    36 1   
    24     9    37 1   
    25    10    11 1   
    26    10    23 1   
    27    10    38 1   
    28    10    39 1   
    29    11    24 1   
    30    11    40 1   
    31    11    41 1   
    32    12    13 1   
    33    12    16 1   
    34    12    17 1   
    35    12    24 1   
    36    13    14 1   
    37    13    42 1   
    38    13    43 1   
    39    14    27 1   
    40    14    44 1   
    41    14    45 1   
    42    15    27 1   
    43    15    46 1   
    44    15    47 1   
    45    16    28 1   
    46    16    29 1   
    47    17    23 1   
    48    17    48 1   
    49    17    49 1   
    50    18    50 1   
    51    18    51 1   
    52    18    52 1   
    53    19    53 1   
    54    20    21 1   
    55    22    54 1   
    56    23    55 1   
    57    24    25 1   
    58    24    26 2   
    59    25    56 1   
    60    27    57 1   
    61    27    58 1   
@<TRIPOS>SUBSTRUCTURE
     1 U9K         1 TEMP              0 ****  ****    0 ROOT
