@<TRIPOS>MOLECULE
U9L
   48    52     1     0     0
SMALL
No Charge or Current Charge


@<TRIPOS>ATOM
      1 C20        130.5260   167.4480   115.0340 ca         1 U9L       0.654900
      2 C22        130.3670   165.0400   115.7660 c6         1 U9L       0.204800
      3 C23        129.3200   163.8750   115.7750 c6         1 U9L       0.148800
      4 C25        128.5020   164.5590   113.5590 c6         1 U9L       0.148800
      5 C26        129.5420   165.7290   113.5210 c6         1 U9L       0.204800
      6 C27        129.4150   171.7490   117.4220 ca         1 U9L      -0.080000
      7 C10        128.4880   168.8470   114.3070 cc         1 U9L      -0.198200
      8 C11        129.8380   168.6390   114.7460 ca         1 U9L      -0.175800
      9 C12        130.4340   169.8660   114.8910 ca         1 U9L      -0.009200
     10 C13        131.7950   169.9090   115.3010 ca         1 U9L      -0.085000
     11 C14        132.5510   171.1010   115.4160 ca         1 U9L      -0.084000
     12 C15        133.8850   171.0670   115.8490 ca         1 U9L      -0.127000
     13 C16        134.4920   169.8470   116.1650 ca         1 U9L      -0.096000
     14 C17        133.7650   168.6550   116.0320 ca         1 U9L      -0.097000
     15 C18        132.4260   168.6590   115.5970 ca         1 U9L       0.316000
     16 C02        129.6680   172.0570   118.7680 ca         1 U9L       0.128000
     17 C03        130.3390   173.2420   119.1090 ca         1 U9L      -0.096000
     18 C04        130.7570   174.1230   118.0970 ca         1 U9L      -0.099000
     19 C05        130.5080   173.8150   116.7490 ca         1 U9L      -0.107000
     20 C06        129.8430   172.6230   116.3970 ca         1 U9L      -0.107300
     21 C09        128.3010   170.2130   114.2060 cd         1 U9L      -0.197100
     22 N08        129.4940   170.8710   114.5840 na         1 U9L      -0.075700
     23 N19        131.7970   167.4630   115.4700 nb         1 U9L      -0.769000
     24 N21        129.9420   166.1790   114.8900 nh         1 U9L      -0.767300
     25 N24        128.9460   163.4140   114.4060 n7         1 U9L      -0.865400
     26 H1         131.3330   164.6420   115.4210 h1         1 U9L       0.054450
     27 H2         130.5060   165.3860   116.8020 h1         1 U9L       0.054450
     28 H3         128.4140   164.2230   116.2950 h1         1 U9L       0.038700
     29 H4         129.7210   163.0290   116.3520 h1         1 U9L       0.038700
     30 H5         127.5510   164.9490   113.9540 h1         1 U9L       0.038700
     31 H6         128.3100   164.2070   112.5350 h1         1 U9L       0.038700
     32 H7         130.4330   165.3870   112.9730 h1         1 U9L       0.054450
     33 H8         129.1130   166.5590   112.9430 h1         1 U9L       0.054450
     34 H9         128.8890   170.8280   117.1830 ha         1 U9L       0.145000
     35 H10        127.7290   168.0880   114.1220 ha         1 U9L       0.208000
     36 H11        132.1410   172.0660   115.1610 ha         1 U9L       0.105000
     37 H12        134.4500   171.9930   115.9350 ha         1 U9L       0.111000
     38 H13        135.5270   169.8210   116.5000 ha         1 U9L       0.114000
     39 H14        134.2460   167.7090   116.2650 ha         1 U9L       0.127000
     40 H15        130.5320   173.4760   120.1520 ha         1 U9L       0.132000
     41 H16        131.2760   175.0430   118.3580 ha         1 U9L       0.121000
     42 H17        130.8380   174.5040   115.9740 ha         1 U9L       0.115000
     43 H18        130.3640   172.7640   114.2870 h1         1 U9L       0.068200
     44 H19        128.6480   172.7820   114.6320 h1         1 U9L       0.068200
     45 H20        127.4020   170.7650   113.9410 h4         1 U9L       0.215000
     46 H21        128.1820   162.7290   114.4770 hn         1 U9L       0.411000
     47 C07        129.5940   172.3070   114.9190 c3         1 U9L       0.123900
     48 Cl01       129.1390   170.9540   120.0330 cl         1 U9L      -0.205000
@<TRIPOS>BOND
     1     1     8 ar  
     2     1    23 ar  
     3     1    24 1   
     4     2     3 1   
     5     2    24 1   
     6     2    26 1   
     7     2    27 1   
     8     3    25 1   
     9     3    28 1   
    10     3    29 1   
    11     4     5 1   
    12     4    25 1   
    13     4    30 1   
    14     4    31 1   
    15     5    24 1   
    16     5    32 1   
    17     5    33 1   
    18     6    16 ar  
    19     6    20 ar  
    20     6    34 1   
    21     7     8 1   
    22     7    21 2   
    23     7    35 1   
    24     8     9 ar  
    25     9    10 ar  
    26     9    22 1   
    27    10    11 ar  
    28    10    15 ar  
    29    11    12 ar  
    30    11    36 1   
    31    12    13 ar  
    32    12    37 1   
    33    13    14 ar  
    34    13    38 1   
    35    14    15 ar  
    36    14    39 1   
    37    15    23 ar  
    38    16    17 ar  
    39    16    48 1   
    40    17    18 ar  
    41    17    40 1   
    42    18    19 ar  
    43    18    41 1   
    44    19    20 ar  
    45    19    42 1   
    46    20    47 1   
    47    21    22 1   
    48    21    45 1   
    49    22    47 1   
    50    25    46 1   
    51    43    47 1   
    52    44    47 1   
@<TRIPOS>SUBSTRUCTURE
     1 U9L         1 TEMP              0 ****  ****    0 ROOT
