@<TRIPOS>MOLECULE
U9L
   48    52     1     0     0
SMALL
abcg2


@<TRIPOS>ATOM
      1 C20        130.5510   167.3340   115.0200 ca         1 U9L       0.654900
      2 C22        130.6030   164.9200   115.3790 c6         1 U9L       0.204800
      3 C23        129.5960   163.7900   115.5320 c6         1 U9L       0.148800
      4 C25        128.2670   164.6880   113.7400 c6         1 U9L       0.148800
      5 C26        129.2630   165.8220   113.5710 c6         1 U9L       0.204800
      6 C27        129.4770   171.8480   117.3800 ca         1 U9L      -0.080000
      7 C10        128.4670   168.8370   114.4500 cc         1 U9L      -0.198200
      8 C11        129.8280   168.5470   114.7750 ca         1 U9L      -0.175800
      9 C12        130.4880   169.7760   114.9620 ca         1 U9L      -0.009200
     10 C13        131.8410   169.8300   115.4140 ca         1 U9L      -0.085000
     11 C14        132.6180   170.9880   115.6260 ca         1 U9L      -0.084000
     12 C15        133.9070   170.9030   116.1060 ca         1 U9L      -0.127000
     13 C16        134.4730   169.6520   116.3940 ca         1 U9L      -0.096000
     14 C17        133.7410   168.5040   116.1890 ca         1 U9L      -0.097000
     15 C18        132.4220   168.5540   115.6910 ca         1 U9L       0.316000
     16 C02        129.6180   172.3100   118.6820 ca         1 U9L       0.128000
     17 C03        130.1380   173.5640   118.9620 ca         1 U9L      -0.096000
     18 C04        130.5270   174.3720   117.8980 ca         1 U9L      -0.099000
     19 C05        130.4010   173.9240   116.5900 ca         1 U9L      -0.107000
     20 C06        129.8740   172.6610   116.3240 ca         1 U9L      -0.107300
     21 C09        128.3500   170.1980   114.4300 cd         1 U9L      -0.197100
     22 N08        129.5680   170.7750   114.7280 na         1 U9L      -0.075700
     23 N19        131.7830   167.3610   115.4770 nb         1 U9L      -0.769000
     24 N21        129.9330   166.1050   114.8470 nh         1 U9L      -0.767300
     25 N24        128.9620   163.5040   114.2450 n7         1 U9L      -0.865400
     26 H1         131.4210   164.6030   114.7180 h1         1 U9L       0.054450
     27 H2         131.0350   165.1670   116.3460 h1         1 U9L       0.054450
     28 H3         128.8610   164.0800   116.2990 h1         1 U9L       0.038700
     29 H4         130.1130   162.8950   115.8820 h1         1 U9L       0.038700
     30 H5         127.4670   165.0230   114.4200 h1         1 U9L       0.038700
     31 H6         127.8170   164.4550   112.7740 h1         1 U9L       0.038700
     32 H7         130.0170   165.5300   112.8260 h1         1 U9L       0.054450
     33 H8         128.7630   166.7110   113.2050 h1         1 U9L       0.054450
     34 H9         129.0740   170.8620   117.1980 ha         1 U9L       0.145000
     35 H10        127.6680   168.1410   114.2680 ha         1 U9L       0.208000
     36 H11        132.2120   171.9630   115.4160 ha         1 U9L       0.105000
     37 H12        134.4810   171.8080   116.2620 ha         1 U9L       0.111000
     38 H13        135.4850   169.5890   116.7740 ha         1 U9L       0.114000
     39 H14        134.1640   167.5290   116.3960 ha         1 U9L       0.127000
     40 H15        130.2410   173.9000   119.9850 ha         1 U9L       0.132000
     41 H16        130.9400   175.3530   118.0980 ha         1 U9L       0.121000
     42 H17        130.7220   174.5540   115.7690 ha         1 U9L       0.115000
     43 H18        130.5860   172.5500   114.2990 h1         1 U9L       0.068200
     44 H19        128.8500   172.6740   114.4450 h1         1 U9L       0.068200
     45 H20        127.4960   170.8240   114.2340 h4         1 U9L       0.215000
     46 H21        128.3060   162.7390   114.3490 hn         1 U9L       0.411000
     47 C07        129.7330   172.2090   114.8860 c3         1 U9L       0.123900
     48 CL01       129.1310   171.2700   120.0070 cl         1 U9L      -0.205000
@<TRIPOS>BOND
     1     1     8 ar  
     2     1    23 ar  
     3     1    24 1   
     4     2     3 1   
     5     2    24 1   
     6     2    26 1   
     7     2    27 1   
     8     3    25 1   
     9     3    28 1   
    10     3    29 1   
    11     4     5 1   
    12     4    25 1   
    13     4    30 1   
    14     4    31 1   
    15     5    24 1   
    16     5    32 1   
    17     5    33 1   
    18     6    16 ar  
    19     6    20 ar  
    20     6    34 1   
    21     7     8 1   
    22     7    21 2   
    23     7    35 1   
    24     8     9 ar  
    25     9    10 ar  
    26     9    22 1   
    27    10    11 ar  
    28    10    15 ar  
    29    11    12 ar  
    30    11    36 1   
    31    12    13 ar  
    32    12    37 1   
    33    13    14 ar  
    34    13    38 1   
    35    14    15 ar  
    36    14    39 1   
    37    15    23 ar  
    38    16    17 ar  
    39    16    48 1   
    40    17    18 ar  
    41    17    40 1   
    42    18    19 ar  
    43    18    41 1   
    44    19    20 ar  
    45    19    42 1   
    46    20    47 1   
    47    21    22 1   
    48    21    45 1   
    49    22    47 1   
    50    25    46 1   
    51    43    47 1   
    52    44    47 1   
@<TRIPOS>SUBSTRUCTURE
     1 U9L         1 TEMP              0 ****  ****    0 ROOT
