@<TRIPOS>MOLECULE
U9M
   31    31     1     0     0
SMALL
No Charge or Current Charge


@<TRIPOS>ATOM
      1 O4          30.6630     1.5440    50.6800 oh         1 U9M      -0.722000
      2 C4          29.9070     1.2560    51.8750 c6         1 U9M       0.108300
      3 C5          28.6810     2.2040    52.0430 c6         1 U9M       0.199300
      4 O5          27.9920     1.8850    53.2850 os         1 U9M      -0.455000
      5 C6          27.6690     2.1050    50.8290 c3         1 U9M       0.399300
      6 O6          27.0500     0.8290    50.7090 oh         1 U9M      -0.720500
      7 O6B         26.5860     3.0180    50.9440 oh         1 U9M      -0.720500
      8 C3          30.8330     1.3690    53.1260 c6         1 U9M       0.126300
      9 O3          32.0090     0.5190    52.9830 os         1 U9M      -0.444000
     10 C3M         31.8370    -0.9140    52.9970 c3         1 U9M       0.136900
     11 C2          30.0370     1.1180    54.4470 c6         1 U9M       0.120300
     12 O2          30.9250     1.3020    55.5910 os         1 U9M      -0.445000
     13 C2M         30.4500     0.9170    56.8950 c3         1 U9M       0.151900
     14 C1          28.7810     2.0700    54.4600 c6         1 U9M       0.371300
     15 O1          27.8770     1.7870    55.5080 oh         1 U9M      -0.696000
     16 H4          29.5190     0.2270    51.8270 h1         1 U9M       0.063700
     17 H5          29.0360     3.2430    52.0950 h1         1 U9M       0.056700
     18 H61         28.2280     2.3260    49.9100 h2         1 U9M       0.035700
     19 HO6         26.9150     0.6790    49.7480 ho         1 U9M       0.501000
     20 H45         26.3290     3.2570    50.0270 ho         1 U9M       0.501000
     21 H3          31.1950     2.4070    53.1680 h1         1 U9M       0.092700
     22 H481        32.8040    -1.4110    52.8530 h1         1 U9M       0.033033
     23 H482        31.4280    -1.2540    53.9570 h1         1 U9M       0.033033
     24 H483        31.1670    -1.2450    52.1940 h1         1 U9M       0.033033
     25 H2          29.6740     0.0810    54.4500 h1         1 U9M       0.066700
     26 H4B1        31.2800     0.9160    57.6130 h1         1 U9M       0.034367
     27 H4B2        29.6940     1.6180    57.2680 h1         1 U9M       0.034367
     28 H4B3        30.0190    -0.0930    56.8740 h1         1 U9M       0.034367
     29 H1          29.1070     3.1190    54.5220 h2         1 U9M       0.027700
     30 HO4         31.5550     1.1430    50.8200 ho         1 U9M       0.523000
     31 HO1         27.0140     1.7540    55.0410 ho         1 U9M       0.522000
@<TRIPOS>BOND
     1     1     2 1   
     2     1    30 1   
     3     2     3 1   
     4     2     8 1   
     5     2    16 1   
     6     3     4 1   
     7     3     5 1   
     8     3    17 1   
     9     4    14 1   
    10     5     6 1   
    11     5     7 1   
    12     5    18 1   
    13     6    19 1   
    14     7    20 1   
    15     8     9 1   
    16     8    11 1   
    17     8    21 1   
    18     9    10 1   
    19    10    22 1   
    20    10    23 1   
    21    10    24 1   
    22    11    12 1   
    23    11    14 1   
    24    11    25 1   
    25    12    13 1   
    26    13    26 1   
    27    13    27 1   
    28    13    28 1   
    29    14    15 1   
    30    14    29 1   
    31    15    31 1   
@<TRIPOS>SUBSTRUCTURE
     1 U9M         1 TEMP              0 ****  ****    0 ROOT
