@<TRIPOS>MOLECULE
U9M
   31    31     1     0     0
SMALL
bcc


@<TRIPOS>ATOM
      1 O4          30.6290     1.6090    50.7330 oh         1 U9M      -0.599800
      2 C4          29.9010     1.2460    51.8800 c6         1 U9M       0.085100
      3 C5          28.6890     2.1690    51.9870 c6         1 U9M       0.176100
      4 O5          27.9690     1.8530    53.1530 os         1 U9M      -0.408600
      5 C6          27.7480     2.0580    50.7940 c3         1 U9M       0.352900
      6 O6          27.2710     0.7480    50.7240 oh         1 U9M      -0.598300
      7 O6B         26.7240     2.9870    50.9910 oh         1 U9M      -0.598300
      8 C3          30.7510     1.4010    53.1430 c6         1 U9M       0.103100
      9 O3          31.9210     0.6180    53.0800 os         1 U9M      -0.397600
     10 C3M         31.7710    -0.7750    53.2550 c3         1 U9M       0.113700
     11 C2          29.9100     1.1750    54.4000 c6         1 U9M       0.097100
     12 O2          30.7150     1.4550    55.5140 os         1 U9M      -0.398600
     13 C2M         30.4860     0.6550    56.6520 c3         1 U9M       0.128700
     14 C1          28.6920     2.1020    54.3360 c6         1 U9M       0.324900
     15 O1          27.8660     1.8450    55.4060 oh         1 U9M      -0.573800
     16 H4          29.5360     0.2120    51.8060 h1         1 U9M       0.063700
     17 H5          29.0520     3.2100    52.0270 h1         1 U9M       0.056700
     18 H61         28.3150     2.3050    49.8880 h2         1 U9M       0.035700
     19 HO6         27.0410     0.5430    49.8130 ho         1 U9M       0.402000
     20 H45         26.2520     3.1090    50.1600 ho         1 U9M       0.402000
     21 H3          31.1180     2.4350    53.1680 h1         1 U9M       0.092700
     22 H481        32.7240    -1.2320    52.9920 h1         1 U9M       0.033033
     23 H482        31.5400    -1.0460    54.2890 h1         1 U9M       0.033033
     24 H483        31.0010    -1.2100    52.6110 h1         1 U9M       0.033033
     25 H2          29.5350     0.1390    54.4280 h1         1 U9M       0.066700
     26 H4B1        31.2760     0.8780    57.3680 h1         1 U9M       0.034367
     27 H4B2        29.5220     0.8550    57.1250 h1         1 U9M       0.034367
     28 H4B3        30.5360    -0.4130    56.4130 h1         1 U9M       0.034367
     29 H1          29.0410     3.1500    54.3330 h2         1 U9M       0.027700
     30 HO4         31.4420     1.0930    50.7170 ho         1 U9M       0.424000
     31 HO1         27.2880     2.6020    55.5540 ho         1 U9M       0.423000
@<TRIPOS>BOND
     1     1     2 1   
     2     1    30 1   
     3     2     3 1   
     4     2     8 1   
     5     2    16 1   
     6     3     4 1   
     7     3     5 1   
     8     3    17 1   
     9     4    14 1   
    10     5     6 1   
    11     5     7 1   
    12     5    18 1   
    13     6    19 1   
    14     7    20 1   
    15     8     9 1   
    16     8    11 1   
    17     8    21 1   
    18     9    10 1   
    19    10    22 1   
    20    10    23 1   
    21    10    24 1   
    22    11    12 1   
    23    11    14 1   
    24    11    25 1   
    25    12    13 1   
    26    13    26 1   
    27    13    27 1   
    28    13    28 1   
    29    14    15 1   
    30    14    29 1   
    31    15    31 1   
@<TRIPOS>SUBSTRUCTURE
     1 U9M         1 TEMP              0 ****  ****    0 ROOT
