@<TRIPOS>MOLECULE
U9N
  108   107     1     0     0
SMALL
No Charge or Current Charge


@<TRIPOS>ATOM
      1 C2         122.5890   147.5200   116.1730 c3         1 U9N       0.138300
      2 C1         121.5310   147.8460   117.2790 c3         1 U9N       0.208600
      3 N          118.3430   150.3400   113.3770 n8         1 U9N      -1.008200
      4 C3         121.9620   147.0940   114.8080 c3         1 U9N       0.141600
      5 C4         120.6840   150.8520   114.2650 c3         1 U9N       0.233600
      6 C5         119.3320   150.0880   114.4620 c3         1 U9N       0.110800
      7 C11        124.2220   144.2920   117.2960 c3         1 U9N      -0.138400
      8 C12        124.3180   144.0670   118.8220 c3         1 U9N      -0.068400
      9 C13        125.5720   143.2550   119.2080 c3         1 U9N      -0.078400
     10 C14        125.6910   142.9580   120.7160 c3         1 U9N      -0.076400
     11 C15        126.9350   142.1040   121.0470 c3         1 U9N      -0.075400
     12 C16        127.1220   141.8640   122.5590 c3         1 U9N      -0.074400
     13 C17        128.3420   140.9730   122.8780 c3         1 U9N      -0.077400
     14 C18        128.5630   140.7760   124.3930 c3         1 U9N      -0.075400
     15 C19        129.7670   139.8700   124.7120 c3         1 U9N      -0.090100
     16 C30        123.9410   147.3440   113.4040 c          1 U9N       0.586100
     17 C31        124.8850   146.5690   112.4770 c3         1 U9N      -0.137400
     18 C32        126.3360   146.5110   113.0130 c3         1 U9N      -0.066400
     19 C33        126.4920   145.7450   114.3470 c3         1 U9N      -0.083400
     20 C34        127.9610   145.6880   114.8310 c3         1 U9N      -0.071400
     21 C35        128.1670   144.9840   116.1960 c3         1 U9N      -0.071400
     22 C36        127.8440   143.4690   116.2380 c3         1 U9N      -0.077400
     23 C37        128.7900   142.5820   115.3960 c3         1 U9N      -0.073400
     24 C38        128.4370   141.0730   115.4240 c3         1 U9N      -0.071400
     25 C39        128.3980   140.4010   116.8210 c3         1 U9N      -0.073400
     26 C40        129.7040   140.5380   117.6400 c3         1 U9N      -0.074400
     27 C41        129.7180   139.6570   118.9090 c3         1 U9N      -0.077400
     28 C42        130.9950   139.8400   119.7580 c3         1 U9N      -0.074400
     29 C43        131.1150   138.8140   120.9060 c3         1 U9N      -0.077400
     30 C44        132.3720   139.0280   121.7770 c3         1 U9N      -0.075400
     31 C45        132.5640   137.9260   122.8460 c3         1 U9N      -0.074400
     32 C46        133.8210   138.1030   123.7290 c3         1 U9N      -0.072400
     33 C47        133.7760   139.3300   124.6640 c3         1 U9N      -0.090100
     34 O4         121.9010   144.8140   116.8250 o          1 U9N      -0.495000
     35 O5         123.9430   148.5630   113.4940 o          1 U9N      -0.478000
     36 O2         123.4900   146.4830   116.6580 os         1 U9N      -0.452100
     37 O3         122.9740   146.5290   113.9350 os         1 U9N      -0.453100
     38 O1P        120.4620   151.5710   117.2020 o          1 U9N      -0.827000
     39 O2P        122.6890   150.5860   117.5840 o          1 U9N      -0.827000
     40 O3P        120.7520   149.0240   116.9830 os         1 U9N      -0.587400
     41 O4P        121.6800   150.4630   115.2320 os         1 U9N      -0.588400
     42 P          121.4130   150.4870   116.8210 p5         1 U9N       1.396800
     43 H1         123.1820   148.4250   115.9980 h1         1 U9N       0.105700
     44 H2         122.0550   147.9780   118.2350 h1         1 U9N       0.039200
     45 H3         120.8520   146.9940   117.4020 h1         1 U9N       0.039200
     46 H4         117.4720   149.8390   113.5920 hn         1 U9N       0.380500
     47 H5         118.0640   151.3290   113.3950 hn         1 U9N       0.380500
     48 H7         121.4900   147.9640   114.3370 h1         1 U9N       0.089700
     49 H8         121.1650   146.3620   114.9850 h1         1 U9N       0.089700
     50 H9         121.0620   150.6400   113.2560 h1         1 U9N       0.023700
     51 H10        120.5010   151.9330   114.3250 h1         1 U9N       0.023700
     52 H11        118.8700   150.3840   115.4130 h1         1 U9N       0.042700
     53 H12        119.5280   149.0090   114.4990 h1         1 U9N       0.042700
     54 H13        124.0960   143.3230   116.8000 hc         1 U9N       0.061700
     55 H14        125.1560   144.7650   116.9740 hc         1 U9N       0.061700
     56 H15        124.3460   145.0380   119.3340 hc         1 U9N       0.057200
     57 H16        123.4180   143.5440   119.1700 hc         1 U9N       0.057200
     58 H17        125.5750   142.3090   118.6520 hc         1 U9N       0.033700
     59 H18        126.4600   143.8170   118.8970 hc         1 U9N       0.033700
     60 H19        125.7410   143.9050   121.2670 hc         1 U9N       0.042700
     61 H20        124.7900   142.4320   121.0560 hc         1 U9N       0.042700
     62 H21        126.8510   141.1370   120.5350 hc         1 U9N       0.034700
     63 H22        127.8300   142.5980   120.6490 hc         1 U9N       0.034700
     64 H23        127.2390   142.8310   123.0640 hc         1 U9N       0.038700
     65 H24        126.2180   141.3960   122.9660 hc         1 U9N       0.038700
     66 H25        128.2020   139.9940   122.4040 hc         1 U9N       0.036700
     67 H26        129.2430   141.4180   122.4370 hc         1 U9N       0.036700
     68 H27        128.7160   141.7530   124.8680 hc         1 U9N       0.037200
     69 H28        127.6610   140.3400   124.8400 hc         1 U9N       0.037200
     70 H29        129.8970   139.7740   125.7970 hc         1 U9N       0.029700
     71 H30        129.6150   138.8680   124.2940 hc         1 U9N       0.029700
     72 H31        130.6880   140.2890   124.2910 hc         1 U9N       0.029700
     73 H32        124.5230   145.5410   112.3550 hc         1 U9N       0.062700
     74 H33        124.9020   147.0710   111.5030 hc         1 U9N       0.062700
     75 H34        126.9690   146.0330   112.2550 hc         1 U9N       0.045200
     76 H35        126.7140   147.5340   113.1360 hc         1 U9N       0.045200
     77 H36        125.8820   146.2300   115.1180 hc         1 U9N       0.048700
     78 H37        126.1050   144.7270   114.2200 hc         1 U9N       0.048700
     79 H38        128.5810   145.2040   114.0670 hc         1 U9N       0.034200
     80 H39        128.3360   146.7150   114.9210 hc         1 U9N       0.034200
     81 H40        129.2080   145.1270   116.5100 hc         1 U9N       0.039200
     82 H41        127.5530   145.4950   116.9490 hc         1 U9N       0.039200
     83 H42        126.8070   143.2950   115.9280 hc         1 U9N       0.040700
     84 H43        127.9150   143.1470   117.2810 hc         1 U9N       0.040700
     85 H44        129.8220   142.7240   115.7400 hc         1 U9N       0.035200
     86 H45        128.7640   142.9130   114.3520 hc         1 U9N       0.035200
     87 H46        127.4610   140.9330   114.9450 hc         1 U9N       0.034700
     88 H47        129.1630   140.5380   114.7990 hc         1 U9N       0.034700
     89 H48        127.5610   140.8050   117.4040 hc         1 U9N       0.036700
     90 H49        128.1820   139.3350   116.6760 hc         1 U9N       0.036700
     91 H50        129.8440   141.5860   117.9300 hc         1 U9N       0.038200
     92 H51        130.5560   140.2630   117.0060 hc         1 U9N       0.038200
     93 H52        128.8400   139.8880   119.5260 hc         1 U9N       0.037200
     94 H53        129.6310   138.6050   118.6100 hc         1 U9N       0.037200
     95 H54        131.8750   139.7490   119.1090 hc         1 U9N       0.036700
     96 H55        131.0070   140.8560   120.1720 hc         1 U9N       0.036700
     97 H56        130.2230   138.8700   121.5420 hc         1 U9N       0.037200
     98 H57        131.1410   137.8040   120.4790 hc         1 U9N       0.037200
     99 H58        133.2590   139.0550   121.1320 hc         1 U9N       0.037200
    100 H59        132.2990   140.0090   122.2630 hc         1 U9N       0.037200
    101 H60        131.6770   137.8760   123.4880 hc         1 U9N       0.037200
    102 H61        132.6330   136.9560   122.3380 hc         1 U9N       0.037200
    103 H62        133.9430   137.2040   124.3450 hc         1 U9N       0.034700
    104 H63        134.7100   138.1670   123.0900 hc         1 U9N       0.034700
    105 H64        134.6670   139.3520   125.3030 hc         1 U9N       0.031033
    106 H65        133.7490   140.2650   124.0920 hc         1 U9N       0.031033
    107 H66        132.8930   139.2920   125.3120 hc         1 U9N       0.031033
    108 C10        123.0560   145.2040   116.9190 c          1 U9N       0.603100
@<TRIPOS>BOND
     1     1     2 1   
     2     1     4 1   
     3     1    36 1   
     4     1    43 1   
     5     2    40 1   
     6     2    44 1   
     7     2    45 1   
     8     3     6 1   
     9     3    46 1   
    10     3    47 1   
    11     4    37 1   
    12     4    48 1   
    13     4    49 1   
    14     5     6 1   
    15     5    41 1   
    16     5    50 1   
    17     5    51 1   
    18     6    52 1   
    19     6    53 1   
    20     7     8 1   
    21     7    54 1   
    22     7    55 1   
    23     7   108 1   
    24     8     9 1   
    25     8    56 1   
    26     8    57 1   
    27     9    10 1   
    28     9    58 1   
    29     9    59 1   
    30    10    11 1   
    31    10    60 1   
    32    10    61 1   
    33    11    12 1   
    34    11    62 1   
    35    11    63 1   
    36    12    13 1   
    37    12    64 1   
    38    12    65 1   
    39    13    14 1   
    40    13    66 1   
    41    13    67 1   
    42    14    15 1   
    43    14    68 1   
    44    14    69 1   
    45    15    70 1   
    46    15    71 1   
    47    15    72 1   
    48    16    17 1   
    49    16    35 2   
    50    16    37 1   
    51    17    18 1   
    52    17    73 1   
    53    17    74 1   
    54    18    19 1   
    55    18    75 1   
    56    18    76 1   
    57    19    20 1   
    58    19    77 1   
    59    19    78 1   
    60    20    21 1   
    61    20    79 1   
    62    20    80 1   
    63    21    22 1   
    64    21    81 1   
    65    21    82 1   
    66    22    23 1   
    67    22    83 1   
    68    22    84 1   
    69    23    24 1   
    70    23    85 1   
    71    23    86 1   
    72    24    25 1   
    73    24    87 1   
    74    24    88 1   
    75    25    26 1   
    76    25    89 1   
    77    25    90 1   
    78    26    27 1   
    79    26    91 1   
    80    26    92 1   
    81    27    28 1   
    82    27    93 1   
    83    27    94 1   
    84    28    29 1   
    85    28    95 1   
    86    28    96 1   
    87    29    30 1   
    88    29    97 1   
    89    29    98 1   
    90    30    31 1   
    91    30    99 1   
    92    30   100 1   
    93    31    32 1   
    94    31   101 1   
    95    31   102 1   
    96    32    33 1   
    97    32   103 1   
    98    32   104 1   
    99    33   105 1   
   100    33   106 1   
   101    33   107 1   
   102    34   108 2   
   103    36   108 1   
   104    38    42 1   
   105    39    42 1   
   106    40    42 1   
   107    41    42 1   
@<TRIPOS>SUBSTRUCTURE
     1 U9N         1 TEMP              0 ****  ****    0 ROOT
