@<TRIPOS>MOLECULE
U9N
  108   107     1     0     0
SMALL
bcc


@<TRIPOS>ATOM
      1 C2         122.6170   146.7590   115.6780 c3         1 U9N       0.115100
      2 C1         121.3640   147.1570   116.4550 c3         1 U9N       0.185400
      3 N          117.1630   152.8250   115.1570 n8         1 U9N      -0.897800
      4 C3         122.3210   146.4920   114.2060 c3         1 U9N       0.118400
      5 C4         119.2200   151.6920   115.7790 c3         1 U9N       0.210400
      6 C5         117.9060   151.5810   115.0260 c3         1 U9N       0.110800
      7 C11        123.7870   143.5070   117.0580 c3         1 U9N      -0.138400
      8 C12        124.6850   144.0960   118.1410 c3         1 U9N      -0.068400
      9 C13        125.4370   143.0070   118.8930 c3         1 U9N      -0.078400
     10 C14        126.4010   143.5640   119.9320 c3         1 U9N      -0.076400
     11 C15        127.1690   142.4780   120.6700 c3         1 U9N      -0.075400
     12 C16        128.1260   143.0210   121.7230 c3         1 U9N      -0.074400
     13 C17        128.8800   141.9290   122.4680 c3         1 U9N      -0.077400
     14 C18        129.8210   142.4650   123.5390 c3         1 U9N      -0.075400
     15 C19        130.5570   141.3620   124.2840 c3         1 U9N      -0.090100
     16 C30        124.4470   146.6720   113.1700 c          1 U9N       0.635100
     17 C31        125.5270   145.9130   112.4460 c3         1 U9N      -0.137400
     18 C32        126.8910   146.0930   113.1120 c3         1 U9N      -0.066400
     19 C33        126.9790   145.4290   114.4800 c3         1 U9N      -0.083400
     20 C34        128.3570   145.5820   115.1160 c3         1 U9N      -0.071400
     21 C35        128.4830   144.9260   116.4900 c3         1 U9N      -0.071400
     22 C36        128.2530   143.4160   116.5140 c3         1 U9N      -0.077400
     23 C37        129.2800   142.6130   115.7250 c3         1 U9N      -0.073400
     24 C38        128.9250   141.1330   115.5910 c3         1 U9N      -0.071400
     25 C39        128.7070   140.3830   116.9010 c3         1 U9N      -0.073400
     26 C40        129.9200   140.3550   117.8230 c3         1 U9N      -0.074400
     27 C41        129.7040   139.4740   119.0470 c3         1 U9N      -0.077400
     28 C42        130.9220   139.3830   119.9560 c3         1 U9N      -0.074400
     29 C43        130.6910   138.4980   121.1740 c3         1 U9N      -0.077400
     30 C44        131.9240   138.3450   122.0530 c3         1 U9N      -0.075400
     31 C45        131.6660   137.4950   123.2920 c3         1 U9N      -0.074400
     32 C46        132.8880   137.2960   124.1830 c3         1 U9N      -0.072400
     33 C47        133.3720   138.5720   124.8600 c3         1 U9N      -0.090100
     34 O4         121.7400   144.1410   115.9890 o          1 U9N      -0.544000
     35 O5         124.4900   147.8560   113.3910 o          1 U9N      -0.527000
     36 O2         123.3290   145.6880   116.3080 os         1 U9N      -0.428900
     37 O3         123.4300   145.8940   113.5350 os         1 U9N      -0.429900
     38 O1P        118.8620   149.0000   117.3270 o          1 U9N      -0.827000
     39 O2P        121.1980   150.0100   117.8190 o          1 U9N      -0.827000
     40 O3P        120.8920   148.3500   115.8720 os         1 U9N      -0.564200
     41 O4P        120.0080   150.5300   115.5880 os         1 U9N      -0.565200
     42 P          120.1920   149.4870   116.8390 p5         1 U9N       1.396800
     43 H1         123.3190   147.5900   115.7540 h1         1 U9N       0.105700
     44 H2         121.6410   147.2880   117.5080 h1         1 U9N       0.039200
     45 H3         120.5970   146.3820   116.4030 h1         1 U9N       0.039200
     46 H4         116.3510   152.8000   114.5540 hn         1 U9N       0.325300
     47 H5         116.8000   152.9050   116.0990 hn         1 U9N       0.325300
     48 H7         122.0400   147.4310   113.7290 h1         1 U9N       0.089700
     49 H8         121.5010   145.7890   114.0840 h1         1 U9N       0.089700
     50 H9         119.7820   152.5510   115.4040 h1         1 U9N       0.023700
     51 H10        119.0210   151.8870   116.8410 h1         1 U9N       0.023700
     52 H11        117.3640   150.6950   115.3830 h1         1 U9N       0.042700
     53 H12        118.1190   151.4170   113.9670 h1         1 U9N       0.042700
     54 H13        123.1940   142.6820   117.4590 hc         1 U9N       0.061700
     55 H14        124.4080   143.0730   116.2650 hc         1 U9N       0.061700
     56 H15        125.4020   144.7900   117.6940 hc         1 U9N       0.057200
     57 H16        124.0890   144.6770   118.8510 hc         1 U9N       0.057200
     58 H17        124.7190   142.3400   119.3820 hc         1 U9N       0.033700
     59 H18        125.9910   142.3880   118.1800 hc         1 U9N       0.033700
     60 H19        127.1090   144.2430   119.4440 hc         1 U9N       0.042700
     61 H20        125.8460   144.1730   120.6540 hc         1 U9N       0.042700
     62 H21        126.4620   141.7890   121.1440 hc         1 U9N       0.034700
     63 H22        127.7310   141.8800   119.9430 hc         1 U9N       0.034700
     64 H23        128.8420   143.7010   121.2480 hc         1 U9N       0.038700
     65 H24        127.5650   143.6280   122.4420 hc         1 U9N       0.038700
     66 H25        128.1630   141.2430   122.9300 hc         1 U9N       0.036700
     67 H26        129.4520   141.3300   121.7510 hc         1 U9N       0.036700
     68 H27        130.5460   143.1440   123.0780 hc         1 U9N       0.037200
     69 H28        129.2510   143.0700   124.2510 hc         1 U9N       0.037200
     70 H29        131.2250   141.7640   125.0470 hc         1 U9N       0.029700
     71 H30        129.8580   140.6860   124.7800 hc         1 U9N       0.029700
     72 H31        131.1620   140.7630   123.6010 hc         1 U9N       0.029700
     73 H32        125.2770   144.8540   112.3760 hc         1 U9N       0.062700
     74 H33        125.5640   146.3040   111.4250 hc         1 U9N       0.062700
     75 H34        127.6500   145.6630   112.4540 hc         1 U9N       0.045200
     76 H35        127.1250   147.1570   113.1920 hc         1 U9N       0.045200
     77 H36        126.2260   145.8490   115.1570 hc         1 U9N       0.048700
     78 H37        126.7310   144.3690   114.3700 hc         1 U9N       0.048700
     79 H38        129.1130   145.1800   114.4350 hc         1 U9N       0.034200
     80 H39        128.5840   146.6480   115.2140 hc         1 U9N       0.034200
     81 H40        129.4760   145.1420   116.8970 hc         1 U9N       0.039200
     82 H41        127.7690   145.3990   117.1720 hc         1 U9N       0.039200
     83 H42        127.2500   143.1880   116.1380 hc         1 U9N       0.040700
     84 H43        128.2570   143.0830   117.5560 hc         1 U9N       0.040700
     85 H44        130.2640   142.7280   116.1920 hc         1 U9N       0.035200
     86 H45        129.3820   143.0240   114.7170 hc         1 U9N       0.035200
     87 H46        128.0160   141.0500   114.9850 hc         1 U9N       0.034700
     88 H47        129.7130   140.6290   115.0210 hc         1 U9N       0.034700
     89 H48        127.8520   140.8060   117.4400 hc         1 U9N       0.036700
     90 H49        128.4230   139.3520   116.6640 hc         1 U9N       0.036700
     91 H50        130.1700   141.3700   118.1490 hc         1 U9N       0.038200
     92 H51        130.7910   139.9930   117.2650 hc         1 U9N       0.038200
     93 H52        128.8510   139.8530   119.6190 hc         1 U9N       0.037200
     94 H53        129.4250   138.4660   118.7190 hc         1 U9N       0.037200
     95 H54        131.7740   138.9990   119.3840 hc         1 U9N       0.036700
     96 H55        131.2070   140.3870   120.2880 hc         1 U9N       0.036700
     97 H56        129.8680   138.9100   121.7680 hc         1 U9N       0.037200
     98 H57        130.3570   137.5070   120.8440 hc         1 U9N       0.037200
     99 H58        132.7350   137.8960   121.4690 hc         1 U9N       0.037200
    100 H59        132.2800   139.3380   122.3470 hc         1 U9N       0.037200
    101 H60        130.8600   137.9490   123.8810 hc         1 U9N       0.037200
    102 H61        131.2920   136.5170   122.9740 hc         1 U9N       0.037200
    103 H62        132.6500   136.5560   124.9520 hc         1 U9N       0.034700
    104 H63        133.7010   136.8630   123.5910 hc         1 U9N       0.034700
    105 H64        134.2220   138.3760   125.5140 hc         1 U9N       0.031033
    106 H65        133.6850   139.3270   124.1370 hc         1 U9N       0.031033
    107 H66        132.5820   139.0130   125.4710 hc         1 U9N       0.031033
    108 C10        122.8270   144.4600   116.3990 c          1 U9N       0.652100
@<TRIPOS>BOND
     1     1     2 1   
     2     1     4 1   
     3     1    36 1   
     4     1    43 1   
     5     2    40 1   
     6     2    44 1   
     7     2    45 1   
     8     3     6 1   
     9     3    46 1   
    10     3    47 1   
    11     4    37 1   
    12     4    48 1   
    13     4    49 1   
    14     5     6 1   
    15     5    41 1   
    16     5    50 1   
    17     5    51 1   
    18     6    52 1   
    19     6    53 1   
    20     7     8 1   
    21     7    54 1   
    22     7    55 1   
    23     7   108 1   
    24     8     9 1   
    25     8    56 1   
    26     8    57 1   
    27     9    10 1   
    28     9    58 1   
    29     9    59 1   
    30    10    11 1   
    31    10    60 1   
    32    10    61 1   
    33    11    12 1   
    34    11    62 1   
    35    11    63 1   
    36    12    13 1   
    37    12    64 1   
    38    12    65 1   
    39    13    14 1   
    40    13    66 1   
    41    13    67 1   
    42    14    15 1   
    43    14    68 1   
    44    14    69 1   
    45    15    70 1   
    46    15    71 1   
    47    15    72 1   
    48    16    17 1   
    49    16    35 2   
    50    16    37 1   
    51    17    18 1   
    52    17    73 1   
    53    17    74 1   
    54    18    19 1   
    55    18    75 1   
    56    18    76 1   
    57    19    20 1   
    58    19    77 1   
    59    19    78 1   
    60    20    21 1   
    61    20    79 1   
    62    20    80 1   
    63    21    22 1   
    64    21    81 1   
    65    21    82 1   
    66    22    23 1   
    67    22    83 1   
    68    22    84 1   
    69    23    24 1   
    70    23    85 1   
    71    23    86 1   
    72    24    25 1   
    73    24    87 1   
    74    24    88 1   
    75    25    26 1   
    76    25    89 1   
    77    25    90 1   
    78    26    27 1   
    79    26    91 1   
    80    26    92 1   
    81    27    28 1   
    82    27    93 1   
    83    27    94 1   
    84    28    29 1   
    85    28    95 1   
    86    28    96 1   
    87    29    30 1   
    88    29    97 1   
    89    29    98 1   
    90    30    31 1   
    91    30    99 1   
    92    30   100 1   
    93    31    32 1   
    94    31   101 1   
    95    31   102 1   
    96    32    33 1   
    97    32   103 1   
    98    32   104 1   
    99    33   105 1   
   100    33   106 1   
   101    33   107 1   
   102    34   108 2   
   103    36   108 1   
   104    38    42 1   
   105    39    42 1   
   106    40    42 1   
   107    41    42 1   
@<TRIPOS>SUBSTRUCTURE
     1 U9N         1 TEMP              0 ****  ****    0 ROOT
