@<TRIPOS>MOLECULE
U9O
   19    18     1     0     0
SMALL
No Charge or Current Charge


@<TRIPOS>ATOM
      1 N          181.0030   176.8250   114.8330 n8         1 U9O      -0.993200
      2 C          182.0180   177.9790   119.6500 c3         1 U9O       0.055600
      3 O          181.1590   175.6820   119.7410 o          1 U9O      -0.480100
      4 C1         181.9160   176.4870   119.2080 c          1 U9O       0.561100
      5 C2         182.9150   176.0370   118.1290 c3         1 U9O      -0.181400
      6 C3         182.2400   175.8170   116.7510 c3         1 U9O      -0.065400
      7 C4         181.6010   177.0910   116.1530 c3         1 U9O       0.148800
      8 O1         180.9630   178.4040   120.5480 oh         1 U9O      -0.627000
      9 H1         180.6410   177.7050   114.4450 hn         1 U9O       0.391500
     10 H2         181.7470   176.5610   114.1750 hn         1 U9O       0.391500
     11 H4         183.0000   178.1140   120.1220 h1         1 U9O       0.032700
     12 H5         182.0080   178.5930   118.7400 h1         1 U9O       0.032700
     13 H6         183.3700   175.0900   118.4430 hc         1 U9O       0.058700
     14 H7         183.6940   176.8000   118.0060 hc         1 U9O       0.058700
     15 H8         181.4720   175.0390   116.8470 hc         1 U9O       0.056700
     16 H9         182.9920   175.4320   116.0510 hc         1 U9O       0.056700
     17 H10        182.3660   177.8730   116.0440 h1         1 U9O       0.028700
     18 H11        180.8130   177.4640   116.8220 h1         1 U9O       0.028700
     19 H12        181.1260   179.3480   120.7730 ho         1 U9O       0.445000
@<TRIPOS>BOND
     1     1     7 1   
     2     1     9 1   
     3     1    10 1   
     4     2     4 1   
     5     2     8 1   
     6     2    11 1   
     7     2    12 1   
     8     3     4 2   
     9     4     5 1   
    10     5     6 1   
    11     5    13 1   
    12     5    14 1   
    13     6     7 1   
    14     6    15 1   
    15     6    16 1   
    16     7    17 1   
    17     7    18 1   
    18     8    19 1   
@<TRIPOS>SUBSTRUCTURE
     1 U9O         1 TEMP              0 ****  ****    0 ROOT
