@<TRIPOS>MOLECULE
U9O
   19    18     1     0     0
SMALL
abcg2


@<TRIPOS>ATOM
      1 N          181.0850   176.3300   114.5960 n8         1 U9O      -0.993200
      2 C          182.1730   177.9370   120.0410 c3         1 U9O       0.055600
      3 O          180.5890   176.4710   119.0330 o          1 U9O      -0.480100
      4 C1         181.7080   176.9250   119.0230 c          1 U9O       0.561100
      5 C2         182.7570   176.5150   118.0200 c3         1 U9O      -0.181400
      6 C3         182.2210   175.9210   116.7270 c3         1 U9O      -0.065400
      7 C4         181.5250   176.9440   115.8400 c3         1 U9O       0.148800
      8 O1         181.2100   178.1050   121.0360 oh         1 U9O      -0.627000
      9 H1         180.5790   177.0090   114.0440 hn         1 U9O       0.391500
     10 H2         181.8950   176.0780   114.0430 hn         1 U9O       0.391500
     11 H4         183.1460   177.6010   120.4310 h1         1 U9O       0.032700
     12 H5         182.3840   178.8640   119.4840 h1         1 U9O       0.032700
     13 H6         183.3890   175.7800   118.5340 hc         1 U9O       0.058700
     14 H7         183.4200   177.3630   117.8170 hc         1 U9O       0.058700
     15 H8         181.5370   175.0970   116.9420 hc         1 U9O       0.056700
     16 H9         183.0610   175.4890   116.1770 hc         1 U9O       0.056700
     17 H10        182.2000   177.8000   115.6950 h1         1 U9O       0.028700
     18 H11        180.6430   177.3340   116.3540 h1         1 U9O       0.028700
     19 H12        181.5230   178.7800   121.6440 ho         1 U9O       0.445000
@<TRIPOS>BOND
     1     1     7 1   
     2     1     9 1   
     3     1    10 1   
     4     2     4 1   
     5     2     8 1   
     6     2    11 1   
     7     2    12 1   
     8     3     4 2   
     9     4     5 1   
    10     5     6 1   
    11     5    13 1   
    12     5    14 1   
    13     6     7 1   
    14     6    15 1   
    15     6    16 1   
    16     7    17 1   
    17     7    18 1   
    18     8    19 1   
@<TRIPOS>SUBSTRUCTURE
     1 U9O         1 TEMP              0 ****  ****    0 ROOT
