@<TRIPOS>MOLECULE
U9P
   59    63     1     0     0
SMALL
No Charge or Current Charge


@<TRIPOS>ATOM
      1 C1          15.8930     0.1770   -31.4220 cc         1 U9P      -0.262500
      2 C10         13.1830    -1.2900   -33.3570 cd         1 U9P      -0.147000
      3 C11         14.8160     2.9400   -29.0090 c5         1 U9P       0.213500
      4 C12         14.8930     2.4980   -27.5010 c5         1 U9P       0.130600
      5 C13         12.6380     2.6440   -28.0230 c5         1 U9P       0.146600
      6 C14         13.3390     3.4040   -29.1750 c5         1 U9P      -0.128400
      7 C15         21.3090     1.6310   -28.3190 ca         1 U9P       0.341900
      8 C16         21.2010     3.3330   -26.7500 ca         1 U9P       0.369900
      9 C17         19.9300     3.7310   -27.1960 ca         1 U9P      -0.196600
     10 C18         19.3380     3.0180   -28.2660 ca         1 U9P      -0.064000
     11 C19         19.2640     4.8940   -26.5150 c          1 U9P       0.612700
     12 C2          16.0130     1.1480   -30.3310 cc         1 U9P       0.678900
     13 C20         11.0810    -0.1760   -32.3940 c3         1 U9P       0.099300
     14 C21         10.5210     0.4350   -33.6970 c3         1 U9P      -0.109600
     15 C22         10.3100    -1.4490   -31.9780 c3         1 U9P      -0.109600
     16 C23         17.2140     6.3480   -26.4360 c3         1 U9P       0.096300
     17 C3          18.1880     0.9590   -30.3360 cd         1 U9P       0.466500
     18 C4          17.0490    -0.4170   -31.9470 cd         1 U9P       0.014000
     19 C5          19.4970     1.1050   -29.9580 cc         1 U9P      -0.274800
     20 C6          20.1960     0.1690   -30.7760 cc         1 U9P       0.427500
     21 C7          14.6120    -0.2130   -32.0010 cc         1 U9P       0.334500
     22 C8          20.0260     1.9240   -28.8400 ca         1 U9P      -0.028800
     23 C9          14.5000    -1.1560   -33.0490 cc         1 U9P      -0.225000
     24 N1          17.1140     1.5680   -29.7380 nd         1 U9P      -0.796000
     25 N2          18.2210     0.0230   -31.3500 na         1 U9P       0.070900
     26 N3          19.4560    -0.5060   -31.6510 nd         1 U9P      -0.580100
     27 N4          12.5360    -0.4200   -32.4820 na         1 U9P       0.133800
     28 N5          13.4210     0.2440   -31.6470 nd         1 U9P      -0.574800
     29 N6          14.8800     1.6870   -29.8140 nu         1 U9P      -0.920100
     30 N7          21.8880     2.3070   -27.3000 nb         1 U9P      -0.668000
     31 N8          18.0200     5.2550   -26.9850 ns         1 U9P      -0.509900
     32 O1          13.5820     2.7710   -26.9460 os         1 U9P      -0.457000
     33 O2          19.7880     5.4930   -25.5870 o          1 U9P      -0.606100
     34 H1          12.6690    -1.9020   -34.0900 h4         1 U9P       0.159000
     35 H2          15.5530     3.7060   -29.2950 h1         1 U9P       0.077700
     36 H3          15.1180     1.4280   -27.3880 h1         1 U9P       0.064700
     37 H4          15.6470     3.0670   -26.9440 h1         1 U9P       0.064700
     38 H5          11.6740     3.0860   -27.7380 h1         1 U9P       0.050700
     39 H6          12.4920     1.5800   -28.2560 h1         1 U9P       0.050700
     40 H7          13.2580     4.4850   -29.0160 hc         1 U9P       0.065200
     41 H8          12.9050     3.1940   -30.1590 hc         1 U9P       0.065200
     42 H9          21.8980     0.8090   -28.7220 h4         1 U9P       0.015100
     43 H10         21.7010     3.8490   -25.9310 h4         1 U9P       0.039100
     44 H11         18.3790     3.3300   -28.6570 ha         1 U9P       0.138000
     45 H12         10.9280     0.5660   -31.5990 h1         1 U9P       0.077700
     46 H13          9.4580     0.6790   -33.5840 hc         1 U9P       0.052367
     47 H14         11.0570     1.3580   -33.9490 hc         1 U9P       0.052367
     48 H15         10.6260    -0.2640   -34.5360 hc         1 U9P       0.052367
     49 H16         10.6980    -1.8400   -31.0300 hc         1 U9P       0.052367
     50 H17          9.2440    -1.2280   -31.8430 hc         1 U9P       0.052367
     51 H18         10.4050    -2.2320   -32.7390 hc         1 U9P       0.052367
     52 H19         16.2640     6.4120   -26.9820 h1         1 U9P       0.041367
     53 H20         17.0100     6.1600   -25.3740 h1         1 U9P       0.041367
     54 H21         17.7560     7.2970   -26.5420 h1         1 U9P       0.041367
     55 H22         17.1410    -1.1540   -32.7330 h4         1 U9P       0.164000
     56 H23         21.2570    -0.0420   -30.7490 h4         1 U9P       0.049800
     57 H24         15.3060    -1.6900   -33.5360 ha         1 U9P       0.148000
     58 H25         14.0620     1.3520   -30.3260 hn         1 U9P       0.540000
     59 H26         17.6500     4.7250   -27.7620 hn         1 U9P       0.317500
@<TRIPOS>BOND
     1     1    12 1   
     2     1    18 2   
     3     1    21 1   
     4     2    23 2   
     5     2    27 1   
     6     2    34 1   
     7     3     4 1   
     8     3     6 1   
     9     3    29 1   
    10     3    35 1   
    11     4    32 1   
    12     4    36 1   
    13     4    37 1   
    14     5     6 1   
    15     5    32 1   
    16     5    38 1   
    17     5    39 1   
    18     6    40 1   
    19     6    41 1   
    20     7    22 ar  
    21     7    30 ar  
    22     7    42 1   
    23     8     9 ar  
    24     8    30 ar  
    25     8    43 1   
    26     9    10 ar  
    27     9    11 1   
    28    10    22 ar  
    29    10    44 1   
    30    11    31 1   
    31    11    33 2   
    32    12    24 2   
    33    12    29 1   
    34    13    14 1   
    35    13    15 1   
    36    13    27 1   
    37    13    45 1   
    38    14    46 1   
    39    14    47 1   
    40    14    48 1   
    41    15    49 1   
    42    15    50 1   
    43    15    51 1   
    44    16    31 1   
    45    16    52 1   
    46    16    53 1   
    47    16    54 1   
    48    17    19 2   
    49    17    24 1   
    50    17    25 1   
    51    18    25 1   
    52    18    55 1   
    53    19    20 1   
    54    19    22 1   
    55    20    26 2   
    56    20    56 1   
    57    21    23 1   
    58    21    28 2   
    59    23    57 1   
    60    25    26 1   
    61    27    28 1   
    62    29    58 1   
    63    31    59 1   
@<TRIPOS>SUBSTRUCTURE
     1 U9P         1 TEMP              0 ****  ****    0 ROOT
