@<TRIPOS>MOLECULE
U9P
   59    63     1     0     0
SMALL
abcg2


@<TRIPOS>ATOM
      1 C1          15.9190     0.1690   -31.5530 cc         1 U9P      -0.262500
      2 C10         13.1460    -1.3670   -33.3610 cd         1 U9P      -0.147000
      3 C11         14.8580     2.9310   -29.1820 c5         1 U9P       0.213500
      4 C12         15.0040     2.3800   -27.7380 c5         1 U9P       0.130600
      5 C13         12.7780     2.9300   -28.0050 c5         1 U9P       0.146600
      6 C14         13.4920     3.6330   -29.1520 c5         1 U9P      -0.128400
      7 C15         21.4800     2.0930   -28.6260 ca         1 U9P       0.341900
      8 C16         21.1740     3.6720   -26.9950 ca         1 U9P       0.369900
      9 C17         19.7930     3.6620   -27.1780 ca         1 U9P      -0.196600
     10 C18         19.2610     2.8050   -28.1330 ca         1 U9P      -0.064000
     11 C19         18.9380     4.5480   -26.3250 c          1 U9P       0.612700
     12 C2          15.9770     1.2210   -30.5430 cc         1 U9P       0.678900
     13 C20         11.1880     0.0940   -32.6290 c3         1 U9P       0.099300
     14 C21         10.4250    -0.2970   -33.8870 c3         1 U9P      -0.109600
     15 C22         10.5610    -0.4850   -31.3630 c3         1 U9P      -0.109600
     16 C23         16.7930     5.7140   -26.1080 c3         1 U9P       0.096300
     17 C3          18.2450     0.9450   -30.3080 cd         1 U9P       0.466500
     18 C4          17.1000    -0.4280   -31.8860 cd         1 U9P       0.014000
     19 C5          19.5830     1.0740   -29.8940 cc         1 U9P      -0.274800
     20 C6          20.2740     0.1230   -30.6800 cc         1 U9P       0.427500
     21 C7          14.6790    -0.2790   -32.1890 cc         1 U9P       0.334500
     22 C8          20.1060     1.9860   -28.8920 ca         1 U9P      -0.028800
     23 C9          14.4870    -1.3870   -33.0480 cc         1 U9P      -0.225000
     24 N1          17.1170     1.5650   -29.9500 nd         1 U9P      -0.796000
     25 N2          18.2450    -0.0430   -31.2760 na         1 U9P       0.070900
     26 N3          19.4900    -0.5560   -31.5110 nd         1 U9P      -0.580100
     27 N4          12.5990    -0.3070   -32.7230 na         1 U9P       0.133800
     28 N5          13.5150     0.3590   -32.0020 nd         1 U9P      -0.574800
     29 N6          14.8650     1.8790   -30.1860 nu         1 U9P      -0.920100
     30 N7          22.0020     2.9060   -27.7090 nb         1 U9P      -0.668000
     31 N8          17.7430     4.8940   -26.8360 ns         1 U9P      -0.509900
     32 O1          13.8060     2.7280   -27.0310 os         1 U9P      -0.457000
     33 O2          19.3180     4.9290   -25.2140 o          1 U9P      -0.606100
     34 H1          12.5590    -2.0250   -33.9790 h4         1 U9P       0.159000
     35 H2          15.6660     3.6260   -29.4060 h1         1 U9P       0.077700
     36 H3          15.1250     1.2930   -27.7670 h1         1 U9P       0.064700
     37 H4          15.8450     2.8180   -27.2020 h1         1 U9P       0.064700
     38 H5          11.9880     3.5200   -27.5430 h1         1 U9P       0.050700
     39 H6          12.3620     1.9670   -28.3280 h1         1 U9P       0.050700
     40 H7          13.6270     4.6870   -28.9120 hc         1 U9P       0.065200
     41 H8          12.9660     3.5590   -30.1040 hc         1 U9P       0.065200
     42 H9          22.1890     1.4880   -29.1820 h4         1 U9P       0.015100
     43 H10         21.6180     4.3250   -26.2530 h4         1 U9P       0.039100
     44 H11         18.1950     2.7370   -28.2930 ha         1 U9P       0.138000
     45 H12         11.2140     1.1820   -32.5510 h1         1 U9P       0.077700
     46 H13          9.4150     0.1110   -33.8260 hc         1 U9P       0.052367
     47 H14         10.9050     0.1000   -34.7820 hc         1 U9P       0.052367
     48 H15         10.3410    -1.3810   -33.9830 hc         1 U9P       0.052367
     49 H16         11.1300    -0.1880   -30.4810 hc         1 U9P       0.052367
     50 H17          9.5390    -0.1190   -31.2550 hc         1 U9P       0.052367
     51 H18         10.5360    -1.5750   -31.4150 hc         1 U9P       0.052367
     52 H19         15.8740     5.7670   -26.6870 h1         1 U9P       0.041367
     53 H20         16.5760     5.2740   -25.1340 h1         1 U9P       0.041367
     54 H21         17.1770     6.7240   -25.9520 h1         1 U9P       0.041367
     55 H22         17.1960    -1.2120   -32.6220 h4         1 U9P       0.164000
     56 H23         21.3310    -0.0970   -30.6660 h4         1 U9P       0.049800
     57 H24         15.2150    -2.1010   -33.3930 ha         1 U9P       0.148000
     58 H25         14.0030     1.6060   -30.6460 hn         1 U9P       0.540000
     59 H26         17.5180     4.6330   -27.7810 hn         1 U9P       0.317500
@<TRIPOS>BOND
     1     1    12 1   
     2     1    18 2   
     3     1    21 1   
     4     2    23 2   
     5     2    27 1   
     6     2    34 1   
     7     3     4 1   
     8     3     6 1   
     9     3    29 1   
    10     3    35 1   
    11     4    32 1   
    12     4    36 1   
    13     4    37 1   
    14     5     6 1   
    15     5    32 1   
    16     5    38 1   
    17     5    39 1   
    18     6    40 1   
    19     6    41 1   
    20     7    22 ar  
    21     7    30 ar  
    22     7    42 1   
    23     8     9 ar  
    24     8    30 ar  
    25     8    43 1   
    26     9    10 ar  
    27     9    11 1   
    28    10    22 ar  
    29    10    44 1   
    30    11    31 1   
    31    11    33 2   
    32    12    24 2   
    33    12    29 1   
    34    13    14 1   
    35    13    15 1   
    36    13    27 1   
    37    13    45 1   
    38    14    46 1   
    39    14    47 1   
    40    14    48 1   
    41    15    49 1   
    42    15    50 1   
    43    15    51 1   
    44    16    31 1   
    45    16    52 1   
    46    16    53 1   
    47    16    54 1   
    48    17    19 2   
    49    17    24 1   
    50    17    25 1   
    51    18    25 1   
    52    18    55 1   
    53    19    20 1   
    54    19    22 1   
    55    20    26 2   
    56    20    56 1   
    57    21    23 1   
    58    21    28 2   
    59    23    57 1   
    60    25    26 1   
    61    27    28 1   
    62    29    58 1   
    63    31    59 1   
@<TRIPOS>SUBSTRUCTURE
     1 U9P         1 TEMP              0 ****  ****    0 ROOT
