@<TRIPOS>MOLECULE
U9Q
   48    52     1     0     0
SMALL
No Charge or Current Charge


@<TRIPOS>ATOM
      1 C12        127.9630   170.2800   115.0470 cc         1 U9Q      -0.176100
      2 C13        128.3030   168.9590   114.8500 cd         1 U9Q      -0.175200
      3 C14        129.7090   168.7650   115.0650 ca         1 U9Q      -0.161800
      4 C15        130.2250   169.9830   115.4280 ca         1 U9Q       0.027800
      5 C16        131.5900   170.0260   115.8380 ca         1 U9Q      -0.095000
      6 C17        132.3360   168.8060   115.7490 ca         1 U9Q       0.320000
      7 C18        133.6930   168.8000   116.1240 ca         1 U9Q      -0.098000
      8 C19        134.3220   169.9570   116.6040 ca         1 U9Q      -0.091000
      9 C20        133.5880   171.1410   116.7270 ca         1 U9Q      -0.119000
     10 C21        132.2360   171.1750   116.3540 ca         1 U9Q      -0.089000
     11 C23        130.4950   167.6060   115.0020 ca         1 U9Q       0.647900
     12 N24        129.9850   166.3600   114.6010 nh         1 U9Q      -0.766300
     13 C02        128.9560   172.8020   119.4370 ca         1 U9Q       0.107000
     14 C03        129.7690   173.8930   119.7860 ca         1 U9Q      -0.044000
     15 C04        130.4210   174.6330   118.7830 ca         1 U9Q      -0.115000
     16 C05        130.2640   174.2820   117.4310 ca         1 U9Q      -0.012000
     17 C06        129.4530   173.1810   117.0780 ca         1 U9Q      -0.287500
     18 C07        128.7930   172.4450   118.0880 ca         1 U9Q      -0.002000
     19 C25        129.4440   166.2140   113.2140 c6         1 U9Q       0.203800
     20 C26        128.4940   164.9770   113.0730 c6         1 U9Q       0.149800
     21 C28        129.6280   163.8640   114.9510 c6         1 U9Q       0.149800
     22 C29        130.5880   165.0900   115.1200 c6         1 U9Q       0.203800
     23 N11        129.1840   170.9460   115.3470 na         1 U9Q      -0.208900
     24 N22        131.7960   167.6340   115.3310 nb         1 U9Q      -0.758000
     25 N27        129.1160   163.7100   113.5570 n7         1 U9Q      -0.865400
     26 O09        127.9220   173.1730   114.9090 o          1 U9Q      -0.523000
     27 O10        130.4750   173.1080   114.6290 o          1 U9Q      -0.523000
     28 S08        129.2510   172.7160   115.3420 sy         1 U9Q       1.202700
     29 H1         127.0030   170.7860   114.9590 h4         1 U9Q       0.249000
     30 H2         127.5930   168.1740   114.5950 ha         1 U9Q       0.212000
     31 H3         134.2620   167.8770   116.0490 ha         1 U9Q       0.130000
     32 H4         135.3700   169.9290   116.8940 ha         1 U9Q       0.117000
     33 H5         134.0650   172.0370   117.1190 ha         1 U9Q       0.116000
     34 H6         131.7160   172.1060   116.5000 ha         1 U9Q       0.122000
     35 H7         129.8920   174.1660   120.8320 ha         1 U9Q       0.136000
     36 H8         131.0480   175.4790   119.0540 ha         1 U9Q       0.128000
     37 H9         130.7750   174.8650   116.6650 ha         1 U9Q       0.141000
     38 H10        128.1570   171.5980   117.8390 ha         1 U9Q       0.145000
     39 H11        130.2770   166.0970   112.5060 h1         1 U9Q       0.055450
     40 H12        128.8920   167.1140   112.9090 h1         1 U9Q       0.055450
     41 H13        127.5780   165.1710   113.6520 h1         1 U9Q       0.039950
     42 H14        128.1970   164.8640   112.0200 h1         1 U9Q       0.039950
     43 H15        128.7740   163.9920   115.6330 h1         1 U9Q       0.039950
     44 H16        130.1520   162.9460   115.2540 h1         1 U9Q       0.039950
     45 H17        131.5270   164.8770   114.5880 h1         1 U9Q       0.055450
     46 H18        130.8320   165.1890   116.1880 h1         1 U9Q       0.055450
     47 H19        128.4130   162.9590   113.5360 hn         1 U9Q       0.413000
     48 Cl01       128.1390   171.8800   120.6940 cl         1 U9Q      -0.190000
@<TRIPOS>BOND
     1     1     2 2   
     2     1    23 1   
     3     1    29 1   
     4     2     3 1   
     5     2    30 1   
     6     3     4 ar  
     7     3    11 ar  
     8     4     5 ar  
     9     4    23 1   
    10     5     6 ar  
    11     5    10 ar  
    12     6     7 ar  
    13     6    24 ar  
    14     7     8 ar  
    15     7    31 1   
    16     8     9 ar  
    17     8    32 1   
    18     9    10 ar  
    19     9    33 1   
    20    10    34 1   
    21    11    12 1   
    22    11    24 ar  
    23    12    19 1   
    24    12    22 1   
    25    13    14 ar  
    26    13    18 ar  
    27    13    48 1   
    28    14    15 ar  
    29    14    35 1   
    30    15    16 ar  
    31    15    36 1   
    32    16    17 ar  
    33    16    37 1   
    34    17    18 ar  
    35    17    28 1   
    36    18    38 1   
    37    19    20 1   
    38    19    39 1   
    39    19    40 1   
    40    20    25 1   
    41    20    41 1   
    42    20    42 1   
    43    21    22 1   
    44    21    25 1   
    45    21    43 1   
    46    21    44 1   
    47    22    45 1   
    48    22    46 1   
    49    23    28 1   
    50    25    47 1   
    51    26    28 2   
    52    27    28 2   
@<TRIPOS>SUBSTRUCTURE
     1 U9Q         1 TEMP              0 ****  ****    0 ROOT
