@<TRIPOS>MOLECULE
U9Q
   48    52     1     0     0
SMALL
abcg2


@<TRIPOS>ATOM
      1 C12        128.0500   170.4810   114.4790 cc         1 U9Q      -0.176100
      2 C13        128.3000   169.1520   114.4360 cd         1 U9Q      -0.175200
      3 C14        129.6660   168.9540   114.8250 ca         1 U9Q      -0.161800
      4 C15        130.2290   170.2010   115.1090 ca         1 U9Q       0.027800
      5 C16        131.5480   170.3130   115.6430 ca         1 U9Q      -0.095000
      6 C17        132.1590   169.0550   115.9550 ca         1 U9Q       0.320000
      7 C18        133.4280   169.0520   116.5720 ca         1 U9Q      -0.098000
      8 C19        134.0950   170.2250   116.8400 ca         1 U9Q      -0.091000
      9 C20        133.5190   171.4540   116.4820 ca         1 U9Q      -0.119000
     10 C21        132.2760   171.4950   115.8930 ca         1 U9Q      -0.089000
     11 C23        130.4320   167.7680   115.0760 ca         1 U9Q       0.647900
     12 N24        129.8970   166.5260   114.7830 nh         1 U9Q      -0.766300
     13 C02        129.2350   171.9110   119.1560 ca         1 U9Q       0.107000
     14 C03        130.0190   172.9260   119.6930 ca         1 U9Q      -0.044000
     15 C04        130.5480   173.8970   118.8510 ca         1 U9Q      -0.115000
     16 C05        130.3070   173.8530   117.4840 ca         1 U9Q      -0.012000
     17 C06        129.5180   172.8260   116.9810 ca         1 U9Q      -0.287500
     18 C07        128.9650   171.8460   117.7990 ca         1 U9Q      -0.002000
     19 C25        129.4000   166.2840   113.4200 c6         1 U9Q       0.203800
     20 C26        128.4590   165.0930   113.4060 c6         1 U9Q       0.149800
     21 C28        129.6070   164.1630   115.3040 c6         1 U9Q       0.149800
     22 C29        130.5620   165.3470   115.3370 c6         1 U9Q       0.203800
     23 N11        129.2200   171.1520   114.8740 na         1 U9Q      -0.208900
     24 N22        131.6060   167.8400   115.6580 nb         1 U9Q      -0.758000
     25 N27        129.1570   163.9210   113.9330 n7         1 U9Q      -0.865400
     26 O09        127.8060   173.1930   115.0150 o          1 U9Q      -0.523000
     27 O10        130.2180   173.4780   114.5390 o          1 U9Q      -0.523000
     28 S08        129.1690   172.7990   115.2480 sy         1 U9Q       1.202700
     29 H1         127.1560   171.0400   114.2750 h4         1 U9Q       0.249000
     30 H2         127.5780   168.3970   114.1770 ha         1 U9Q       0.212000
     31 H3         133.8650   168.0920   116.8130 ha         1 U9Q       0.130000
     32 H4         135.0700   170.1980   117.3090 ha         1 U9Q       0.117000
     33 H5         134.0550   172.3770   116.6630 ha         1 U9Q       0.116000
     34 H6         131.8730   172.4480   115.5990 ha         1 U9Q       0.122000
     35 H7         130.2160   172.9520   120.7550 ha         1 U9Q       0.136000
     36 H8         131.1620   174.6860   119.2630 ha         1 U9Q       0.128000
     37 H9         130.7340   174.5920   116.8220 ha         1 U9Q       0.141000
     38 H10        128.3570   171.0480   117.3980 ha         1 U9Q       0.145000
     39 H11        130.2540   166.0760   112.7600 h1         1 U9Q       0.055450
     40 H12        128.8970   167.1670   113.0410 h1         1 U9Q       0.055450
     41 H13        127.5630   165.3440   113.9960 h1         1 U9Q       0.039950
     42 H14        128.1450   164.8930   112.3810 h1         1 U9Q       0.039950
     43 H15        128.7650   164.3730   115.9830 h1         1 U9Q       0.039950
     44 H16        130.1240   163.2760   115.6720 h1         1 U9Q       0.039950
     45 H17        131.4710   165.1080   114.7690 h1         1 U9Q       0.055450
     46 H18        130.8560   165.5620   116.3620 h1         1 U9Q       0.055450
     47 H19        128.5420   163.1160   113.9110 hn         1 U9Q       0.413000
     48 CL01       128.5810   170.6850   120.2110 cl         1 U9Q      -0.190000
@<TRIPOS>BOND
     1     1     2 2   
     2     1    23 1   
     3     1    29 1   
     4     2     3 1   
     5     2    30 1   
     6     3     4 ar  
     7     3    11 ar  
     8     4     5 ar  
     9     4    23 1   
    10     5     6 ar  
    11     5    10 ar  
    12     6     7 ar  
    13     6    24 ar  
    14     7     8 ar  
    15     7    31 1   
    16     8     9 ar  
    17     8    32 1   
    18     9    10 ar  
    19     9    33 1   
    20    10    34 1   
    21    11    12 1   
    22    11    24 ar  
    23    12    19 1   
    24    12    22 1   
    25    13    14 ar  
    26    13    18 ar  
    27    13    48 1   
    28    14    15 ar  
    29    14    35 1   
    30    15    16 ar  
    31    15    36 1   
    32    16    17 ar  
    33    16    37 1   
    34    17    18 ar  
    35    17    28 1   
    36    18    38 1   
    37    19    20 1   
    38    19    39 1   
    39    19    40 1   
    40    20    25 1   
    41    20    41 1   
    42    20    42 1   
    43    21    22 1   
    44    21    25 1   
    45    21    43 1   
    46    21    44 1   
    47    22    45 1   
    48    22    46 1   
    49    23    28 1   
    50    25    47 1   
    51    26    28 2   
    52    27    28 2   
@<TRIPOS>SUBSTRUCTURE
     1 U9Q         1 TEMP              0 ****  ****    0 ROOT
