@<TRIPOS>MOLECULE
U9R
   25    26     1     0     0
SMALL
abcg2


@<TRIPOS>ATOM
      1 N1          -7.8590    -3.3800    -8.8580 nc         1 U9R      -0.280000
      2 C4         -11.3430    -4.7990    -4.3870 c5         1 U9R       0.091300
      3 C5         -10.6440    -4.1030    -5.5440 c          1 U9R       0.602100
      4 C6          -8.6780    -4.3930    -6.9740 cd         1 U9R      -0.060400
      5 C7          -8.8350    -3.3930    -7.9170 cc         1 U9R       0.173900
      6 N           -9.4590    -4.7180    -5.8910 ns         1 U9R      -0.386100
      7 C          -12.7370    -5.9850    -6.2100 c3         1 U9R      -0.093100
      8 O          -12.2890    -3.9250    -3.7970 os         1 U9R      -0.436000
      9 C1         -12.1140    -6.0730    -4.8170 c5         1 U9R      -0.086700
     10 C2         -13.1680    -6.1240    -3.7020 c5         1 U9R      -0.111400
     11 C3         -13.4950    -4.6520    -3.4740 c5         1 U9R       0.153600
     12 N2          -6.9540    -4.2800    -8.7330 nd         1 U9R      -0.130100
     13 O1         -11.0830    -3.1360    -6.1330 o          1 U9R      -0.523100
     14 S           -7.2570    -5.2610    -7.3720 ss         1 U9R       0.178100
     15 H1         -10.5840    -5.0750    -3.6440 h1         1 U9R       0.054700
     16 H2          -9.6300    -2.6700    -7.9470 h4         1 U9R       0.082100
     17 H3          -9.1570    -5.4940    -5.3180 hn         1 U9R       0.331500
     18 H4         -13.3370    -6.8760    -6.4000 hc         1 U9R       0.048033
     19 H5         -13.3860    -5.1130    -6.3060 hc         1 U9R       0.048033
     20 H6         -11.9740    -5.9250    -6.9880 hc         1 U9R       0.048033
     21 H7         -11.4470    -6.9340    -4.7710 hc         1 U9R       0.059700
     22 H8         -14.0440    -6.7060    -3.9860 hc         1 U9R       0.060700
     23 H9         -12.7390    -6.5610    -2.7990 hc         1 U9R       0.060700
     24 H10        -13.7640    -4.4290    -2.4420 h1         1 U9R       0.056700
     25 H11        -14.2970    -4.3040    -4.1310 h1         1 U9R       0.056700
@<TRIPOS>BOND
     1     1     5 1   
     2     1    12 2   
     3     2     3 1   
     4     2     8 1   
     5     2     9 1   
     6     2    15 1   
     7     3     6 1   
     8     3    13 2   
     9     4     5 2   
    10     4     6 1   
    11     4    14 1   
    12     5    16 1   
    13     6    17 1   
    14     7     9 1   
    15     7    18 1   
    16     7    19 1   
    17     7    20 1   
    18     8    11 1   
    19     9    10 1   
    20     9    21 1   
    21    10    11 1   
    22    10    22 1   
    23    10    23 1   
    24    11    24 1   
    25    11    25 1   
    26    12    14 1   
@<TRIPOS>SUBSTRUCTURE
     1 U9R         1 TEMP              0 ****  ****    0 ROOT
