@<TRIPOS>MOLECULE
U9R
   25    26     1     0     0
SMALL
No Charge or Current Charge


@<TRIPOS>ATOM
      1 N1          -7.4940    -3.4070    -8.7450 nc         1 U9R      -0.280000
      2 C4         -11.4620    -4.6820    -4.5430 c5         1 U9R       0.091300
      3 C5         -10.7470    -4.0100    -5.7650 c          1 U9R       0.602100
      4 C6          -8.5750    -4.3940    -6.9640 cd         1 U9R      -0.060400
      5 C7          -8.5990    -3.4180    -7.9260 cc         1 U9R       0.173900
      6 N           -9.5410    -4.6620    -5.9930 ns         1 U9R      -0.386100
      7 C          -13.0140    -5.9640    -6.2390 c3         1 U9R      -0.093100
      8 O          -12.5620    -3.8810    -4.0370 os         1 U9R      -0.436000
      9 C1         -12.1690    -6.0140    -4.9370 c5         1 U9R      -0.086700
     10 C2         -13.0170    -6.2050    -3.6480 c5         1 U9R      -0.111400
     11 C3         -13.4600    -4.7500    -3.3060 c5         1 U9R       0.153600
     12 N2          -6.6310    -4.3470    -8.4340 nd         1 U9R      -0.130100
     13 O1         -11.1290    -3.0350    -6.4020 o          1 U9R      -0.523100
     14 S           -7.0980    -5.3000    -7.1400 ss         1 U9R       0.178100
     15 H1         -10.7340    -4.8320    -3.7330 h1         1 U9R       0.054700
     16 H2          -9.3680    -2.6800    -8.1040 h4         1 U9R       0.082100
     17 H3          -9.3730    -5.4340    -5.3570 hn         1 U9R       0.331500
     18 H4         -13.5740    -6.8970    -6.3760 hc         1 U9R       0.048033
     19 H5         -13.7400    -5.1420    -6.2230 hc         1 U9R       0.048033
     20 H6         -12.3800    -5.8330    -7.1230 hc         1 U9R       0.048033
     21 H7         -11.4490    -6.8320    -5.0580 hc         1 U9R       0.059700
     22 H8         -13.8690    -6.8790    -3.7900 hc         1 U9R       0.060700
     23 H9         -12.4120    -6.6230    -2.8350 hc         1 U9R       0.060700
     24 H10        -13.3880    -4.5410    -2.2300 h1         1 U9R       0.056700
     25 H11        -14.4880    -4.5470    -3.6340 h1         1 U9R       0.056700
@<TRIPOS>BOND
     1     1     5 1   
     2     1    12 2   
     3     2     3 1   
     4     2     8 1   
     5     2     9 1   
     6     2    15 1   
     7     3     6 1   
     8     3    13 2   
     9     4     5 2   
    10     4     6 1   
    11     4    14 1   
    12     5    16 1   
    13     6    17 1   
    14     7     9 1   
    15     7    18 1   
    16     7    19 1   
    17     7    20 1   
    18     8    11 1   
    19     9    10 1   
    20     9    21 1   
    21    10    11 1   
    22    10    22 1   
    23    10    23 1   
    24    11    24 1   
    25    11    25 1   
    26    12    14 1   
@<TRIPOS>SUBSTRUCTURE
     1 U9R         1 TEMP              0 ****  ****    0 ROOT
