@<TRIPOS>MOLECULE
U9S
   11    11     1     0     0
SMALL
abcg2


@<TRIPOS>ATOM
      1 C02         28.4300    -6.8520    -8.1840 c          1 U9S       0.750000
      2 C04         28.4700    -6.2600    -6.7790 cx         1 U9S      -0.029700
      3 C05         28.9840    -4.9190    -6.4820 cx         1 U9S      -0.029700
      4 C06         29.5020    -4.0140    -7.5910 c          1 U9S       0.750000
      5 O01         27.4330    -6.5010    -8.8460 o          1 U9S      -0.744250
      6 O03         29.3260    -7.6470    -8.5110 o          1 U9S      -0.744250
      7 O07         30.4660    -4.4060    -8.2700 o          1 U9S      -0.744250
      8 O08         28.8600    -2.9520    -7.7130 o          1 U9S      -0.744250
      9 O09         29.7060    -6.0890    -6.1210 op         1 U9S      -0.480000
     10 H1          27.6600    -6.6170    -6.1360 h1         1 U9S       0.007200
     11 H2          28.5300    -4.3910    -5.6420 h1         1 U9S       0.007200
@<TRIPOS>BOND
     1     1     2 1   
     2     1     5 1   
     3     1     6 1   
     4     2     3 1   
     5     2     9 1   
     6     2    10 1   
     7     3     4 1   
     8     3     9 1   
     9     3    11 1   
    10     4     7 1   
    11     4     8 1   
@<TRIPOS>SUBSTRUCTURE
     1 U9S         1 TEMP              0 ****  ****    0 ROOT
