@<TRIPOS>MOLECULE
U9S
   11    11     1     0     0
SMALL
No Charge or Current Charge


@<TRIPOS>ATOM
      1 C02         28.4080    -6.7950    -8.1880 c          1 U9S       0.750000
      2 C04         28.4640    -6.3040    -6.7310 cx         1 U9S      -0.029700
      3 C05         29.0030    -4.9210    -6.4440 cx         1 U9S      -0.029700
      4 C06         29.4590    -4.0420    -7.6260 c          1 U9S       0.750000
      5 O01         27.5660    -6.3030    -8.9270 o          1 U9S      -0.744250
      6 O03         29.1230    -7.7320    -8.5210 o          1 U9S      -0.744250
      7 O07         30.5720    -4.2160    -8.1080 o          1 U9S      -0.744250
      8 O08         28.7160    -3.1360    -7.9770 o          1 U9S      -0.744250
      9 O09         29.7650    -6.1160    -6.0970 op         1 U9S      -0.480000
     10 H1          27.6940    -6.7010    -6.0700 h1         1 U9S       0.007200
     11 H2          28.5990    -4.3830    -5.5870 h1         1 U9S       0.007200
@<TRIPOS>BOND
     1     1     2 1   
     2     1     5 1   
     3     1     6 1   
     4     2     3 1   
     5     2     9 1   
     6     2    10 1   
     7     3     4 1   
     8     3     9 1   
     9     3    11 1   
    10     4     7 1   
    11     4     8 1   
@<TRIPOS>SUBSTRUCTURE
     1 U9S         1 TEMP              0 ****  ****    0 ROOT
