@<TRIPOS>MOLECULE
U9T
   40    41     1     0     0
SMALL
bcc


@<TRIPOS>ATOM
      1 C4         -16.4430   -29.3800     0.3330 c6         1 U9T       0.107000
      2 C14        -16.1840   -29.3510     2.7640 c6         1 U9T       0.107000
      3 C5         -14.2930   -28.7120     1.2600 c          1 U9T       0.792100
      4 C6         -12.2620   -27.7900     2.2810 c3         1 U9T       0.108000
      5 C11         -7.4680   -26.6490     3.8900 ca         1 U9T      -0.105000
      6 C7         -11.5400   -28.0520     3.5950 c3         1 U9T      -0.043100
      7 C8         -10.1250   -27.5440     3.6530 ca         1 U9T      -0.109300
      8 C9          -9.4850   -26.8910     2.6030 ca         1 U9T      -0.104000
      9 C10         -8.1730   -26.4450     2.7150 ca         1 U9T      -0.140000
     10 C12         -8.0750   -27.3010     4.9560 ca         1 U9T      -0.165000
     11 C13         -9.3790   -27.7270     4.8110 ca         1 U9T       0.128900
     12 N1         -15.5470   -29.2130     1.4660 n          1 U9T      -0.494800
     13 N2         -13.6070   -28.3100     2.3700 ns         1 U9T      -0.587900
     14 C3         -17.1900   -30.7030     0.4060 c6         1 U9T      -0.088400
     15 C1         -18.6740   -32.1770     1.8260 c3         1 U9T      -0.085100
     16 C2         -17.9390   -30.8490     1.7250 c6         1 U9T      -0.061700
     17 O1         -13.7860   -28.6630     0.1430 o          1 U9T      -0.644100
     18 F1          -9.9670   -28.3560     5.8470 f          1 U9T      -0.149900
     19 C15        -16.9450   -30.6670     2.8660 c6         1 U9T      -0.088400
     20 H1         -15.8650   -29.3240    -0.5850 h1         1 U9T       0.045950
     21 H2         -17.1650   -28.5530     0.3130 h1         1 U9T       0.045950
     22 H3         -15.4420   -29.3340     3.5590 h1         1 U9T       0.045950
     23 H4         -16.8720   -28.5140     2.9380 h1         1 U9T       0.045950
     24 H5         -11.7480   -28.2940     1.4640 h1         1 U9T       0.054700
     25 H6         -12.2620   -26.7190     2.0490 h1         1 U9T       0.054700
     26 H8         -12.1130   -27.6030     4.4130 hc         1 U9T       0.059700
     27 H9         -11.5470   -29.1290     3.7820 hc         1 U9T       0.059700
     28 H10        -10.0120   -26.7240     1.6720 ha         1 U9T       0.138000
     29 H11         -7.7070   -25.9380     1.8810 ha         1 U9T       0.137000
     30 H12         -7.5480   -27.4730     5.8850 ha         1 U9T       0.149000
     31 H13        -14.1230   -28.0200     3.1840 hn         1 U9T       0.301500
     32 H14        -17.8800   -30.7680    -0.4390 hc         1 U9T       0.049950
     33 H15        -16.4740   -31.5260     0.3010 hc         1 U9T       0.049950
     34 H16        -19.1880   -32.2740     2.7840 hc         1 U9T       0.034700
     35 H17        -19.4190   -32.2810     1.0360 hc         1 U9T       0.034700
     36 H18        -17.9780   -33.0140     1.7370 hc         1 U9T       0.034700
     37 H19        -18.6750   -30.0370     1.7890 hc         1 U9T       0.043700
     38 H20        -17.4560   -30.7000     3.8320 hc         1 U9T       0.049950
     39 H21        -16.2290   -31.4960     2.8580 hc         1 U9T       0.049950
     40 H7          -6.4460   -26.3070     3.9850 ha         1 U9T       0.136000
@<TRIPOS>BOND
     1     1    12 1   
     2     1    14 1   
     3     1    20 1   
     4     1    21 1   
     5     2    12 1   
     6     2    19 1   
     7     2    22 1   
     8     2    23 1   
     9     3    12 1   
    10     3    13 1   
    11     3    17 2   
    12     4     6 1   
    13     4    13 1   
    14     4    24 1   
    15     4    25 1   
    16     5     9 ar  
    17     5    10 ar  
    18     5    40 1   
    19     6     7 1   
    20     6    26 1   
    21     6    27 1   
    22     7     8 ar  
    23     7    11 ar  
    24     8     9 ar  
    25     8    28 1   
    26     9    29 1   
    27    10    11 ar  
    28    10    30 1   
    29    11    18 1   
    30    13    31 1   
    31    14    16 1   
    32    14    32 1   
    33    14    33 1   
    34    15    16 1   
    35    15    34 1   
    36    15    35 1   
    37    15    36 1   
    38    16    19 1   
    39    16    37 1   
    40    19    38 1   
    41    19    39 1   
@<TRIPOS>SUBSTRUCTURE
     1 U9T         1 TEMP              0 ****  ****    0 ROOT
