@<TRIPOS>MOLECULE
U9T
   40    41     1     0     0
SMALL
No Charge or Current Charge


@<TRIPOS>ATOM
      1 C4         -16.3890   -29.5700     0.2540 c6         1 U9T       0.107000
      2 C14        -15.8440   -29.9420     2.7120 c6         1 U9T       0.107000
      3 C5         -14.1440   -28.9100     1.1350 c          1 U9T       0.658100
      4 C6         -12.0350   -28.0980     2.2240 c3         1 U9T       0.108000
      5 C11         -7.4850   -26.1460     4.0040 ca         1 U9T      -0.087000
      6 C7         -11.3750   -28.0990     3.6200 c3         1 U9T      -0.043100
      7 C8         -10.0080   -27.4050     3.7230 ca         1 U9T      -0.109300
      8 C9          -9.3770   -26.7980     2.6100 ca         1 U9T      -0.086000
      9 C10         -8.1240   -26.1740     2.7540 ca         1 U9T      -0.122000
     10 C12         -8.1010   -26.7440     5.1140 ca         1 U9T      -0.147000
     11 C13         -9.3510   -27.3680     4.9730 ca         1 U9T       0.164000
     12 N1         -15.3570   -29.6010     1.3360 n          1 U9T      -0.427800
     13 N2         -13.3290   -28.7800     2.2330 ns         1 U9T      -0.520900
     14 C3         -17.5060   -30.6320     0.3650 c6         1 U9T      -0.088400
     15 C1         -19.2670   -31.7080     1.8790 c3         1 U9T      -0.085100
     16 C2         -18.1130   -30.6760     1.7800 c6         1 U9T      -0.061700
     17 O1         -13.8250   -28.4500     0.0490 o          1 U9T      -0.644100
     18 F1          -9.9230   -27.9370     6.0590 f          1 U9T      -0.185000
     19 C15        -16.9800   -30.9890     2.7760 c6         1 U9T      -0.088400
     20 H1         -15.9010   -29.6890    -0.7240 h1         1 U9T       0.045950
     21 H2         -16.8530   -28.5730     0.2590 h1         1 U9T       0.045950
     22 H3         -15.0130   -30.3240     3.3210 h1         1 U9T       0.045950
     23 H4         -16.1950   -29.0140     3.1870 h1         1 U9T       0.045950
     24 H5         -11.3770   -28.6050     1.5050 h1         1 U9T       0.054700
     25 H6         -12.1870   -27.0630     1.8900 h1         1 U9T       0.054700
     26 H8         -12.0700   -27.6250     4.3240 hc         1 U9T       0.059700
     27 H9         -11.2720   -29.1410     3.9460 hc         1 U9T       0.059700
     28 H10         -9.8400   -26.7990     1.6270 ha         1 U9T       0.120000
     29 H11         -7.6480   -25.7110     1.8930 ha         1 U9T       0.119000
     30 H12         -7.6120   -26.7270     6.0850 ha         1 U9T       0.131000
     31 H13        -13.6570   -29.1900     3.0960 hn         1 U9T       0.301500
     32 H14        -18.2860   -30.4180    -0.3780 hc         1 U9T       0.049950
     33 H15        -17.0930   -31.6170     0.1070 hc         1 U9T       0.049950
     34 H16        -19.7010   -31.7220     2.8860 hc         1 U9T       0.034700
     35 H17        -20.0740   -31.4680     1.1760 hc         1 U9T       0.034700
     36 H18        -18.9180   -32.7230     1.6520 hc         1 U9T       0.034700
     37 H19        -18.5450   -29.6940     2.0200 hc         1 U9T       0.043700
     38 H20        -17.3750   -31.0340     3.8010 hc         1 U9T       0.049950
     39 H21        -16.5640   -31.9840     2.5620 hc         1 U9T       0.049950
     40 H7          -6.5160   -25.6620     4.1110 ha         1 U9T       0.118000
@<TRIPOS>BOND
     1     1    12 1   
     2     1    14 1   
     3     1    20 1   
     4     1    21 1   
     5     2    12 1   
     6     2    19 1   
     7     2    22 1   
     8     2    23 1   
     9     3    12 1   
    10     3    13 1   
    11     3    17 2   
    12     4     6 1   
    13     4    13 1   
    14     4    24 1   
    15     4    25 1   
    16     5     9 ar  
    17     5    10 ar  
    18     5    40 1   
    19     6     7 1   
    20     6    26 1   
    21     6    27 1   
    22     7     8 ar  
    23     7    11 ar  
    24     8     9 ar  
    25     8    28 1   
    26     9    29 1   
    27    10    11 ar  
    28    10    30 1   
    29    11    18 1   
    30    13    31 1   
    31    14    16 1   
    32    14    32 1   
    33    14    33 1   
    34    15    16 1   
    35    15    34 1   
    36    15    35 1   
    37    15    36 1   
    38    16    19 1   
    39    16    37 1   
    40    19    38 1   
    41    19    39 1   
@<TRIPOS>SUBSTRUCTURE
     1 U9T         1 TEMP              0 ****  ****    0 ROOT
