@<TRIPOS>MOLECULE
U9U
   47    49     1     0     0
SMALL
abcg2


@<TRIPOS>ATOM
      1 C20         43.1800    13.7870    15.3780 c3         1 U9U       0.101000
      2 C21         43.0180    12.9260    14.1140 c3         1 U9U      -0.058100
      3 C22         42.1490    13.5960    13.0880 ca         1 U9U      -0.043300
      4 C23         42.6680    14.5390    12.2030 ca         1 U9U      -0.163500
      5 C24         41.8180    15.1770    11.3110 ca         1 U9U       0.341900
      6 C26         40.0050    14.0370    12.0970 ca         1 U9U       0.341900
      7 C29         39.3650    16.4780    16.9870 cc         1 U9U       0.083900
      8 C02         37.9940    16.4760    17.5310 c          1 U9U       0.701700
      9 C04         37.8190    14.2370    16.9070 cc         1 U9U       0.678200
     10 C05         36.9930    12.9790    16.7740 c3         1 U9U      -0.090400
     11 C06         37.5130    11.9870    15.7600 ca         1 U9U      -0.056300
     12 C07         37.2250    12.0630    14.3860 ca         1 U9U      -0.179300
     13 C08         36.3160    13.1360    13.8520 c3         1 U9U       0.341300
     14 C12         37.7700    11.1440    13.4960 ca         1 U9U      -0.063000
     15 C13         38.6180    10.1420    13.9510 ca         1 U9U      -0.108000
     16 C14         38.9130    10.0550    15.3040 ca         1 U9U      -0.084000
     17 C15         38.3600    10.9690    16.1940 ca         1 U9U      -0.127000
     18 C17         39.9030    15.3120    16.5270 cd         1 U9U      -0.139200
     19 C18         41.3090    15.2450    16.0610 c          1 U9U       0.634300
     20 C27         40.7800    13.3450    13.0200 ca         1 U9U      -0.163500
     21 F09         36.2250    13.1260    12.5090 f          1 U9U      -0.105667
     22 F10         35.0490    13.0180    14.3220 f          1 U9U      -0.105667
     23 F11         36.7330    14.3800    14.1970 f          1 U9U      -0.105667
     24 N03         37.2770    15.3060    17.4260 nd         1 U9U      -0.711100
     25 N16         39.0940    14.1920    16.4970 na         1 U9U      -0.735200
     26 N19         41.8920    14.0410    16.0040 ns         1 U9U      -0.491900
     27 N25         40.5020    14.9420    11.2480 nb         1 U9U      -0.653000
     28 O28         41.8890    16.3030    15.7570 o          1 U9U      -0.627100
     29 O30         40.0240    17.6390    17.0030 oh         1 U9U      -0.490100
     30 H1          43.8270    13.2750    16.0900 h1         1 U9U       0.070700
     31 H2          43.6260    14.7480    15.1360 h1         1 U9U       0.070700
     32 H3          42.5880    11.9620    14.3950 hc         1 U9U       0.056700
     33 H4          44.0140    12.7420    13.7070 hc         1 U9U       0.056700
     34 H5          43.7240    14.7760    12.2070 ha         1 U9U       0.115500
     35 H6          42.2110    15.9100    10.6150 h4         1 U9U       0.022100
     36 H7          38.9390    13.8520    12.0360 h4         1 U9U       0.022100
     37 H8          35.9720    13.2900    16.5660 hc         1 U9U       0.100700
     38 H9          36.9790    12.5030    17.7570 hc         1 U9U       0.100700
     39 H10         37.5400    11.2150    12.4430 ha         1 U9U       0.142000
     40 H11         39.0430     9.4380    13.2490 ha         1 U9U       0.131000
     41 H12         39.5710     9.2780    15.6710 ha         1 U9U       0.126000
     42 H13         38.5890    10.8980    17.2500 ha         1 U9U       0.125000
     43 H14         40.3170    12.6210    13.6770 ha         1 U9U       0.115500
     44 H15         39.4100    13.3550    16.0250 hn         1 U9U       0.501000
     45 H16         41.4110    13.2400    16.3830 hn         1 U9U       0.311500
     46 H17         40.8780    17.4760    16.5270 ho         1 U9U       0.511000
     47 O01         37.5150    17.4860    18.0470 o          1 U9U      -0.503100
@<TRIPOS>BOND
     1     1     2 1   
     2     1    26 1   
     3     1    30 1   
     4     1    31 1   
     5     2     3 1   
     6     2    32 1   
     7     2    33 1   
     8     3     4 ar  
     9     3    20 ar  
    10     4     5 ar  
    11     4    34 1   
    12     5    27 ar  
    13     5    35 1   
    14     6    20 ar  
    15     6    27 ar  
    16     6    36 1   
    17     7     8 1   
    18     7    18 2   
    19     7    29 1   
    20     8    24 1   
    21     8    47 2   
    22     9    10 1   
    23     9    24 2   
    24     9    25 1   
    25    10    11 1   
    26    10    37 1   
    27    10    38 1   
    28    11    12 ar  
    29    11    17 ar  
    30    12    13 1   
    31    12    14 ar  
    32    13    21 1   
    33    13    22 1   
    34    13    23 1   
    35    14    15 ar  
    36    14    39 1   
    37    15    16 ar  
    38    15    40 1   
    39    16    17 ar  
    40    16    41 1   
    41    17    42 1   
    42    18    19 1   
    43    18    25 1   
    44    19    26 1   
    45    19    28 2   
    46    20    43 1   
    47    25    44 1   
    48    26    45 1   
    49    29    46 1   
@<TRIPOS>SUBSTRUCTURE
     1 U9U         1 TEMP              0 ****  ****    0 ROOT
