@<TRIPOS>MOLECULE
U9U
   47    49     1     0     0
SMALL
No Charge or Current Charge


@<TRIPOS>ATOM
      1 C20         43.2510    13.8070    15.2590 c3         1 U9U       0.101000
      2 C21         43.1280    12.9850    13.9600 c3         1 U9U      -0.058100
      3 C22         42.1350    13.5880    12.9720 ca         1 U9U      -0.043300
      4 C23         42.3910    14.8190    12.3440 ca         1 U9U      -0.163500
      5 C24         41.4430    15.3500    11.4520 ca         1 U9U       0.341900
      6 C26         40.0300    13.5430    11.7650 ca         1 U9U       0.341900
      7 C29         39.4880    16.5000    17.1730 cc         1 U9U       0.083900
      8 C02         38.0530    16.5800    17.5650 c          1 U9U       0.701700
      9 C04         37.7480    14.3100    16.9110 cc         1 U9U       0.678200
     10 C05         36.8690    13.1060    16.7290 c3         1 U9U      -0.090400
     11 C06         37.4390    12.0470    15.7730 ca         1 U9U      -0.056300
     12 C07         37.2490    12.0900    14.3600 ca         1 U9U      -0.179300
     13 C08         36.4290    13.2050    13.6740 c3         1 U9U       0.341300
     14 C12         37.8250    11.0670    13.5680 ca         1 U9U      -0.063000
     15 C13         38.5820    10.0390    14.1510 ca         1 U9U      -0.108000
     16 C14         38.7740    10.0090    15.5370 ca         1 U9U      -0.084000
     17 C15         38.2030    11.0050    16.3400 ca         1 U9U      -0.127000
     18 C17         40.0430    15.3320    16.6740 cd         1 U9U      -0.139200
     19 C18         41.4980    15.2970    16.2850 c          1 U9U       0.634300
     20 C27         40.9230    12.9430    12.6690 ca         1 U9U      -0.163500
     21 F09         36.4610    13.1320    12.3240 f          1 U9U      -0.105667
     22 F10         35.1240    13.1530    14.0240 f          1 U9U      -0.105667
     23 F11         36.8810    14.4380    13.9940 f          1 U9U      -0.105667
     24 N03         37.2820    15.4350    17.3960 nd         1 U9U      -0.711100
     25 N16         39.0980    14.2650    16.5730 na         1 U9U      -0.735200
     26 N19         41.9350    14.0680    15.8500 ns         1 U9U      -0.491900
     27 N25         40.2770    14.7270    11.1600 nb         1 U9U      -0.653000
     28 O28         42.2360    16.2740    16.3480 o          1 U9U      -0.627100
     29 O30         40.2100    17.6430    17.3410 oh         1 U9U      -0.490100
     30 H1          43.8720    13.2650    15.9850 h1         1 U9U       0.070700
     31 H2          43.7500    14.7590    15.0320 h1         1 U9U       0.070700
     32 H3          42.8300    11.9620    14.2200 hc         1 U9U       0.056700
     33 H4          44.1180    12.9050    13.4960 hc         1 U9U       0.056700
     34 H5          43.3090    15.3660    12.5410 ha         1 U9U       0.115500
     35 H6          41.6210    16.3030    10.9560 h4         1 U9U       0.022100
     36 H7          39.0870    13.0580    11.5130 h4         1 U9U       0.022100
     37 H8          35.8770    13.4350    16.4100 hc         1 U9U       0.100700
     38 H9          36.7050    12.6640    17.7180 hc         1 U9U       0.100700
     39 H10         37.6930    11.0540    12.4880 ha         1 U9U       0.142000
     40 H11         39.0190     9.2640    13.5250 ha         1 U9U       0.131000
     41 H12         39.3600     9.2110    15.9890 ha         1 U9U       0.126000
     42 H13         38.3580    10.9640    17.4170 ha         1 U9U       0.125000
     43 H14         40.6680    11.9900    13.1240 ha         1 U9U       0.115500
     44 H15         39.3810    13.3670    16.1940 hn         1 U9U       0.501000
     45 H16         41.2670    13.3130    15.8650 hn         1 U9U       0.311500
     46 H17         41.1250    17.4250    17.0220 ho         1 U9U       0.511000
     47 O01         37.5130    17.5810    18.0210 o          1 U9U      -0.503100
@<TRIPOS>BOND
     1     1     2 1   
     2     1    26 1   
     3     1    30 1   
     4     1    31 1   
     5     2     3 1   
     6     2    32 1   
     7     2    33 1   
     8     3     4 ar  
     9     3    20 ar  
    10     4     5 ar  
    11     4    34 1   
    12     5    27 ar  
    13     5    35 1   
    14     6    20 ar  
    15     6    27 ar  
    16     6    36 1   
    17     7     8 1   
    18     7    18 2   
    19     7    29 1   
    20     8    24 1   
    21     8    47 2   
    22     9    10 1   
    23     9    24 2   
    24     9    25 1   
    25    10    11 1   
    26    10    37 1   
    27    10    38 1   
    28    11    12 ar  
    29    11    17 ar  
    30    12    13 1   
    31    12    14 ar  
    32    13    21 1   
    33    13    22 1   
    34    13    23 1   
    35    14    15 ar  
    36    14    39 1   
    37    15    16 ar  
    38    15    40 1   
    39    16    17 ar  
    40    16    41 1   
    41    17    42 1   
    42    18    19 1   
    43    18    25 1   
    44    19    26 1   
    45    19    28 2   
    46    20    43 1   
    47    25    44 1   
    48    26    45 1   
    49    29    46 1   
@<TRIPOS>SUBSTRUCTURE
     1 U9U         1 TEMP              0 ****  ****    0 ROOT
