@<TRIPOS>MOLECULE
U9W
   34    35     1     0     0
SMALL
No Charge or Current Charge


@<TRIPOS>ATOM
      1 C4         -11.5630   -28.1050     3.9970 c6         1 U9W       0.109000
      2 C5         -12.3260   -28.3760     1.5870 c          1 U9W       0.665100
      3 C6         -14.7470   -29.2560     1.5350 ca         1 U9W      -0.008000
      4 C11        -15.0590   -29.0680     0.1690 ca         1 U9W      -0.136500
      5 C7         -15.7130   -29.8380     2.3800 ca         1 U9W      -0.136500
      6 C8         -16.9640   -30.2340     1.8750 ca         1 U9W      -0.078500
      7 C9         -17.2620   -30.0470     0.5170 ca         1 U9W       0.093000
      8 C10        -16.3120   -29.4640    -0.3350 ca         1 U9W      -0.078500
      9 C12        -10.0900   -27.3430     2.0650 c6         1 U9W       0.109000
     10 C13         -8.8650   -27.4100     3.0040 c6         1 U9W      -0.091900
     11 N1         -11.2970   -28.1000     2.5210 n          1 U9W      -0.431800
     12 N2         -13.5070   -28.8800     2.1220 ns         1 U9W      -0.163000
     13 C3         -10.3070   -28.1460     4.9000 c6         1 U9W      -0.091900
     14 C1          -8.0120   -27.1310     5.4010 c3         1 U9W      -0.086100
     15 C2          -9.2500   -27.1130     4.4660 c6         1 U9W      -0.060700
     16 O1         -12.1570   -28.1820     0.3900 o          1 U9W      -0.620100
     17 Cl1        -18.8270   -30.5400    -0.1160 cl         1 U9W      -0.207000
     18 H1         -12.1410   -27.2020     4.2410 h1         1 U9W       0.049950
     19 H2         -12.1850   -28.9700     4.2660 h1         1 U9W       0.049950
     20 H3         -14.3520   -28.6140    -0.5170 ha         1 U9W       0.126000
     21 H4         -15.4940   -29.9880     3.4360 ha         1 U9W       0.126000
     22 H5         -17.7020   -30.6840     2.5360 ha         1 U9W       0.128500
     23 H6         -16.5460   -29.3170    -1.3860 ha         1 U9W       0.128500
     24 H7          -9.7790   -27.7050     1.0740 h1         1 U9W       0.049950
     25 H8         -10.3790   -26.2890     1.9420 h1         1 U9W       0.049950
     26 H9          -8.4110   -28.4080     2.9340 hc         1 U9W       0.051950
     27 H10         -8.1030   -26.6980     2.6590 hc         1 U9W       0.051950
     28 H11        -13.4830   -29.0020     3.1240 hn         1 U9W       0.146000
     29 H12        -10.6050   -27.9710     5.9430 hc         1 U9W       0.051950
     30 H13         -9.8740   -29.1550     4.8670 hc         1 U9W       0.051950
     31 H14         -8.2950   -26.9060     6.4370 hc         1 U9W       0.035700
     32 H15         -7.5190   -28.1110     5.3950 hc         1 U9W       0.035700
     33 H16         -7.2720   -26.3840     5.0920 hc         1 U9W       0.035700
     34 H17         -9.6810   -26.1030     4.5300 hc         1 U9W       0.044700
@<TRIPOS>BOND
     1     1    11 1   
     2     1    13 1   
     3     1    18 1   
     4     1    19 1   
     5     2    11 1   
     6     2    12 1   
     7     2    16 2   
     8     3     4 ar  
     9     3     5 ar  
    10     3    12 1   
    11     4     8 ar  
    12     4    20 1   
    13     5     6 ar  
    14     5    21 1   
    15     6     7 ar  
    16     6    22 1   
    17     7     8 ar  
    18     7    17 1   
    19     8    23 1   
    20     9    10 1   
    21     9    11 1   
    22     9    24 1   
    23     9    25 1   
    24    10    15 1   
    25    10    26 1   
    26    10    27 1   
    27    12    28 1   
    28    13    15 1   
    29    13    29 1   
    30    13    30 1   
    31    14    15 1   
    32    14    31 1   
    33    14    32 1   
    34    14    33 1   
    35    15    34 1   
@<TRIPOS>SUBSTRUCTURE
     1 U9W         1 TEMP              0 ****  ****    0 ROOT
