@<TRIPOS>MOLECULE
U9W
   34    35     1     0     0
SMALL
abcg2


@<TRIPOS>ATOM
      1 C4         -11.6620   -27.7700     4.2880 c6         1 U9W       0.109000
      2 C5         -12.5630   -27.9770     1.9570 c          1 U9W       0.665100
      3 C6         -14.6930   -29.1840     1.7450 ca         1 U9W      -0.008000
      4 C11        -14.4510   -29.9230     0.5850 ca         1 U9W      -0.136500
      5 C7         -16.0040   -29.0840     2.2120 ca         1 U9W      -0.136500
      6 C8         -17.0520   -29.6950     1.5430 ca         1 U9W      -0.078500
      7 C9         -16.7940   -30.4080     0.3840 ca         1 U9W       0.093000
      8 C10        -15.4990   -30.5240    -0.0940 ca         1 U9W      -0.078500
      9 C12        -10.6040   -26.6120     2.4190 c6         1 U9W       0.109000
     10 C13         -9.2330   -27.1250     2.8310 c6         1 U9W      -0.091900
     11 N1         -11.6600   -27.5110     2.8570 n          1 U9W      -0.431800
     12 N2         -13.6780   -28.5930     2.4960 ns         1 U9W      -0.163000
     13 C3         -10.3030   -28.2850     4.7490 c6         1 U9W      -0.091900
     14 C1          -7.8110   -27.9100     4.7630 c3         1 U9W      -0.086100
     15 C2          -9.1630   -27.3600     4.3360 c6         1 U9W      -0.060700
     16 O1         -12.4160   -27.8660     0.7480 o          1 U9W      -0.620100
     17 CL1        -18.1000   -31.1650    -0.4700 cl         1 U9W      -0.207000
     18 H1         -11.9110   -26.8470     4.8250 h1         1 U9W       0.049950
     19 H2         -12.4150   -28.5090     4.5480 h1         1 U9W       0.049950
     20 H3         -13.4480   -30.0480     0.2070 ha         1 U9W       0.126000
     21 H4         -16.2150   -28.5170     3.1110 ha         1 U9W       0.126000
     22 H5         -18.0600   -29.6030     1.9240 ha         1 U9W       0.128500
     23 H6         -15.2950   -31.0930    -0.9920 ha         1 U9W       0.128500
     24 H7         -10.6650   -26.4850     1.3430 h1         1 U9W       0.049950
     25 H8         -10.7740   -25.6290     2.8750 h1         1 U9W       0.049950
     26 H9          -9.0170   -28.0590     2.3020 hc         1 U9W       0.051950
     27 H10         -8.4760   -26.3990     2.5230 hc         1 U9W       0.051950
     28 H11        -13.9540   -28.3260     3.4280 hn         1 U9W       0.146000
     29 H12        -10.3260   -28.4030     5.8350 hc         1 U9W       0.051950
     30 H13        -10.1380   -29.2800     4.3230 hc         1 U9W       0.051950
     31 H14         -7.7610   -28.0450     5.8450 hc         1 U9W       0.035700
     32 H15         -7.6180   -28.8790     4.2980 hc         1 U9W       0.035700
     33 H16         -7.0020   -27.2360     4.4750 hc         1 U9W       0.035700
     34 H17         -9.3180   -26.3930     4.8330 hc         1 U9W       0.044700
@<TRIPOS>BOND
     1     1    11 1   
     2     1    13 1   
     3     1    18 1   
     4     1    19 1   
     5     2    11 1   
     6     2    12 1   
     7     2    16 2   
     8     3     4 ar  
     9     3     5 ar  
    10     3    12 1   
    11     4     8 ar  
    12     4    20 1   
    13     5     6 ar  
    14     5    21 1   
    15     6     7 ar  
    16     6    22 1   
    17     7     8 ar  
    18     7    17 1   
    19     8    23 1   
    20     9    10 1   
    21     9    11 1   
    22     9    24 1   
    23     9    25 1   
    24    10    15 1   
    25    10    26 1   
    26    10    27 1   
    27    12    28 1   
    28    13    15 1   
    29    13    29 1   
    30    13    30 1   
    31    14    15 1   
    32    14    31 1   
    33    14    32 1   
    34    14    33 1   
    35    15    34 1   
@<TRIPOS>SUBSTRUCTURE
     1 U9W         1 TEMP              0 ****  ****    0 ROOT
