@<TRIPOS>MOLECULE
U9X
  105   105     1     0     0
SMALL
No Charge or Current Charge


@<TRIPOS>ATOM
      1 O7          14.7730    15.7540    20.7170 o          1 U9X      -0.575100
      2 C2          15.6890    15.4400    19.9680 c          1 U9X       0.625100
      3 N3          16.7660    16.3210    19.7650 n          1 U9X      -0.404400
      4 C34         17.5490    16.4590    18.6210 c          1 U9X       0.599200
      5 O6          17.5960    15.7180    17.6560 o          1 U9X      -0.525000
      6 C33         18.2610    17.7200    18.7340 ce         1 U9X      -0.433200
      7 C31         17.9370    18.3400    19.8730 c2         1 U9X       0.146900
      8 O5          18.3350    19.5440    20.3870 os         1 U9X      -0.308100
      9 C32         19.2740    20.3380    19.6430 c3         1 U9X       0.139900
     10 C4          16.9550    17.4910    20.6830 c5         1 U9X       0.137900
     11 C27         17.5040    17.0960    22.0890 c3         1 U9X      -0.074400
     12 C28         18.6890    16.0810    22.1670 c3         1 U9X      -0.059700
     13 C30         18.8790    15.5670    23.6130 c3         1 U9X      -0.089600
     14 C29         20.0260    16.6400    21.6240 c3         1 U9X      -0.089600
     15 C7          15.6660    14.0700    19.2590 c3         1 U9X      -0.148400
     16 C9          15.2100    12.8610    20.1320 c3         1 U9X      -0.078400
     17 C12         16.1010    12.4950    21.3550 c3         1 U9X       0.113700
     18 C11         15.7760    13.3010    22.6300 c3         1 U9X      -0.115100
     19 N1          17.5250    12.6070    21.0350 ns         1 U9X      -0.492900
     20 C10         18.5430    11.9340    21.6780 c          1 U9X       0.591100
     21 O1          18.3240    11.1080    22.5560 o          1 U9X      -0.606100
     22 C6          19.9740    12.3250    21.2050 c3         1 U9X       0.038700
     23 C13         20.2360    11.8650    19.7400 c3         1 U9X      -0.087400
     24 C8          21.4970    12.4600    19.0510 c3         1 U9X      -0.058700
     25 C5          21.4000    13.9920    18.8510 c3         1 U9X      -0.091600
     26 C1          21.7740    11.7550    17.7050 c3         1 U9X      -0.091600
     27 N2          20.9890    11.7660    22.1250 ns         1 U9X      -0.484900
     28 C14         22.1450    12.4070    22.5200 c          1 U9X       0.591100
     29 O4          22.3940    13.5570    22.1800 o          1 U9X      -0.599100
     30 C15         23.1250    11.5480    23.3690 c3         1 U9X       0.095300
     31 C16         23.2640    12.1030    24.8110 c3         1 U9X      -0.070400
     32 C17         24.2350    11.3180    25.7400 c3         1 U9X      -0.059700
     33 C18         23.8350     9.8340    25.9130 c3         1 U9X      -0.089600
     34 C3          24.3670    12.0150    27.1130 c3         1 U9X      -0.089600
     35 O2          24.4450    11.5410    22.7780 os         1 U9X      -0.414100
     36 C19         24.6350    10.8410    21.6100 c          1 U9X       0.564100
     37 O3          23.7630    10.1660    21.0750 o          1 U9X      -0.492000
     38 C20         26.0770    11.0100    21.0130 c3         1 U9X       0.157500
     39 N4          26.2770    12.1950    20.0930 n3         1 U9X      -0.731600
     40 C26         25.7070    13.4720    20.6000 c3         1 U9X       0.154100
     41 C25         25.8210    11.9250    18.7090 c3         1 U9X       0.154100
     42 C21         27.2350    10.7820    22.0550 c3         1 U9X      -0.043700
     43 C24         27.5940    12.0070    22.9410 c3         1 U9X      -0.082100
     44 C22         27.0030     9.4860    22.8940 c3         1 U9X      -0.083400
     45 C23         28.2290     8.9940    23.6940 c3         1 U9X      -0.087100
     46 H1          18.9300    18.0730    17.9550 ha         1 U9X       0.225000
     47 H2          19.4960    21.2680    20.1800 h1         1 U9X       0.052700
     48 H3          20.2150    19.7920    19.5000 h1         1 U9X       0.052700
     49 H4          18.8680    20.6000    18.6580 h1         1 U9X       0.052700
     50 H5          16.0150    18.0440    20.8180 h1         1 U9X       0.095700
     51 H6          17.7830    18.0060    22.6340 hc         1 U9X       0.063700
     52 H7          16.6660    16.6740    22.6550 hc         1 U9X       0.063700
     53 H8          18.4280    15.2090    21.5580 hc         1 U9X       0.056700
     54 H9          19.6630    14.8010    23.6530 hc         1 U9X       0.034200
     55 H10         19.1650    16.3870    24.2840 hc         1 U9X       0.034200
     56 H11         17.9550    15.1180    23.9950 hc         1 U9X       0.034200
     57 H12         20.8530    15.9580    21.8550 hc         1 U9X       0.034200
     58 H13         20.0020    16.7540    20.5370 hc         1 U9X       0.034200
     59 H14         20.2560    17.6140    22.0740 hc         1 U9X       0.034200
     60 H15         14.9770    14.1710    18.4130 hc         1 U9X       0.077200
     61 H16         16.6330    13.8440    18.8070 hc         1 U9X       0.077200
     62 H17         14.1770    13.0150    20.4660 hc         1 U9X       0.061200
     63 H18         15.1790    11.9820    19.4760 hc         1 U9X       0.061200
     64 H19         15.8920    11.4420    21.5900 h1         1 U9X       0.074700
     65 H20         14.7040    13.2560    22.8550 hc         1 U9X       0.047700
     66 H21         16.3160    12.8910    23.4910 hc         1 U9X       0.047700
     67 H22         16.0640    14.3500    22.5240 hc         1 U9X       0.047700
     68 H23         17.8040    13.2570    20.3110 hn         1 U9X       0.310500
     69 H24         20.0150    13.4200    21.2540 h1         1 U9X       0.070700
     70 H25         19.3660    12.1140    19.1180 hc         1 U9X       0.057700
     71 H26         20.3050    10.7700    19.7330 hc         1 U9X       0.057700
     72 H27         22.3650    12.2630    19.6920 hc         1 U9X       0.042700
     73 H28         21.3220    14.5160    19.8080 hc         1 U9X       0.036367
     74 H29         22.2950    14.3710    18.3420 hc         1 U9X       0.036367
     75 H30         20.5250    14.2530    18.2430 hc         1 U9X       0.036367
     76 H31         21.9160    10.6770    17.8530 hc         1 U9X       0.036367
     77 H32         20.9390    11.8990    17.0080 hc         1 U9X       0.036367
     78 H33         22.6830    12.1520    17.2370 hc         1 U9X       0.036367
     79 H34         20.8490    10.8200    22.4640 hn         1 U9X       0.324500
     80 H35         22.7220    10.5290    23.4250 h1         1 U9X       0.063700
     81 H36         23.5990    13.1460    24.7480 hc         1 U9X       0.062700
     82 H37         22.2690    12.1270    25.2730 hc         1 U9X       0.062700
     83 H38         25.2320    11.3360    25.2810 hc         1 U9X       0.058700
     84 H39         24.5190     9.3280    26.6060 hc         1 U9X       0.033533
     85 H40         22.8180     9.7470    26.3140 hc         1 U9X       0.033533
     86 H41         23.8790     9.2960    24.9590 hc         1 U9X       0.033533
     87 H42         25.0970    11.4940    27.7440 hc         1 U9X       0.033533
     88 H43         24.7070    13.0510    26.9910 hc         1 U9X       0.033533
     89 H44         23.4050    12.0290    27.6390 hc         1 U9X       0.033533
     90 H45         26.1590    10.1160    20.3790 h1         1 U9X       0.073700
     91 H47         26.0000    13.6780    21.6350 h1         1 U9X       0.038367
     92 H48         26.0460    14.3140    19.9820 h1         1 U9X       0.038367
     93 H49         24.6100    13.4510    20.5610 h1         1 U9X       0.038367
     94 H50         26.0410    12.7770    18.0530 h1         1 U9X       0.038367
     95 H51         26.3300    11.0440    18.2950 h1         1 U9X       0.038367
     96 H52         24.7380    11.7410    18.6810 h1         1 U9X       0.038367
     97 H53         28.1290    10.5930    21.4480 hc         1 U9X       0.055700
     98 H54         28.4340    11.7820    23.6070 hc         1 U9X       0.038033
     99 H55         27.9140    12.8530    22.3230 hc         1 U9X       0.038033
    100 H56         26.7500    12.3240    23.5620 hc         1 U9X       0.038033
    101 H57         26.1720     9.6360    23.5930 hc         1 U9X       0.041700
    102 H58         26.6990     8.6770    22.2180 hc         1 U9X       0.041700
    103 H59         28.0180     8.0160    24.1420 hc         1 U9X       0.032700
    104 H60         29.1040     8.8880    23.0420 hc         1 U9X       0.032700
    105 H61         28.4790     9.6850    24.5070 hc         1 U9X       0.032700
@<TRIPOS>BOND
     1     1     2 2   
     2     2     3 1   
     3     2    15 1   
     4     3     4 1   
     5     3    10 1   
     6     4     5 2   
     7     4     6 1   
     8     6     7 2   
     9     6    46 1   
    10     7     8 1   
    11     7    10 1   
    12     8     9 1   
    13     9    47 1   
    14     9    48 1   
    15     9    49 1   
    16    10    11 1   
    17    10    50 1   
    18    11    12 1   
    19    11    51 1   
    20    11    52 1   
    21    12    13 1   
    22    12    14 1   
    23    12    53 1   
    24    13    54 1   
    25    13    55 1   
    26    13    56 1   
    27    14    57 1   
    28    14    58 1   
    29    14    59 1   
    30    15    16 1   
    31    15    60 1   
    32    15    61 1   
    33    16    17 1   
    34    16    62 1   
    35    16    63 1   
    36    17    18 1   
    37    17    19 1   
    38    17    64 1   
    39    18    65 1   
    40    18    66 1   
    41    18    67 1   
    42    19    20 1   
    43    19    68 1   
    44    20    21 2   
    45    20    22 1   
    46    22    23 1   
    47    22    27 1   
    48    22    69 1   
    49    23    24 1   
    50    23    70 1   
    51    23    71 1   
    52    24    25 1   
    53    24    26 1   
    54    24    72 1   
    55    25    73 1   
    56    25    74 1   
    57    25    75 1   
    58    26    76 1   
    59    26    77 1   
    60    26    78 1   
    61    27    28 1   
    62    27    79 1   
    63    28    29 2   
    64    28    30 1   
    65    30    31 1   
    66    30    35 1   
    67    30    80 1   
    68    31    32 1   
    69    31    81 1   
    70    31    82 1   
    71    32    33 1   
    72    32    34 1   
    73    32    83 1   
    74    33    84 1   
    75    33    85 1   
    76    33    86 1   
    77    34    87 1   
    78    34    88 1   
    79    34    89 1   
    80    35    36 1   
    81    36    37 2   
    82    36    38 1   
    83    38    39 1   
    84    38    42 1   
    85    38    90 1   
    86    39    40 1   
    87    39    41 1   
    88    40    91 1   
    89    40    92 1   
    90    40    93 1   
    91    41    94 1   
    92    41    95 1   
    93    41    96 1   
    94    42    43 1   
    95    42    44 1   
    96    42    97 1   
    97    43    98 1   
    98    43    99 1   
    99    43   100 1   
   100    44    45 1   
   101    44   101 1   
   102    44   102 1   
   103    45   103 1   
   104    45   104 1   
   105    45   105 1   
@<TRIPOS>SUBSTRUCTURE
     1 U9X         1 TEMP              0 ****  ****    0 ROOT
