@<TRIPOS>MOLECULE
U9X
  105   105     1     0     0
SMALL
abcg2


@<TRIPOS>ATOM
      1 O7          16.4200    16.7740    21.7160 o          1 U9X      -0.575100
      2 C2          16.8640    16.3110    20.6860 c          1 U9X       0.625100
      3 N3          17.6690    17.1010    19.8840 n          1 U9X      -0.404400
      4 C34         17.9680    16.9360    18.5180 c          1 U9X       0.599200
      5 O6          17.7040    15.9600    17.8500 o          1 U9X      -0.525000
      6 C33         18.6100    18.1580    18.0730 ce         1 U9X      -0.433200
      7 C31         18.6780    19.0060    19.1130 c2         1 U9X       0.146900
      8 O5          19.1520    20.2260    19.2020 os         1 U9X      -0.308100
      9 C32         19.7440    20.7770    18.0300 c3         1 U9X       0.139900
     10 C4          18.1240    18.4020    20.3650 c5         1 U9X       0.137900
     11 C27         19.1340    18.3190    21.5190 c3         1 U9X      -0.074400
     12 C28         20.3780    17.4450    21.3160 c3         1 U9X      -0.059700
     13 C30         20.9790    17.1190    22.6820 c3         1 U9X      -0.089600
     14 C29         21.4490    18.0850    20.4350 c3         1 U9X      -0.089600
     15 C7          16.5620    14.8990    20.2420 c3         1 U9X      -0.148400
     16 C9          16.1570    13.9580    21.3760 c3         1 U9X      -0.078400
     17 C12         17.3030    13.3340    22.1770 c3         1 U9X       0.113700
     18 C11         18.1950    14.3430    22.8910 c3         1 U9X      -0.115100
     19 N1          18.1020    12.4720    21.3190 ns         1 U9X      -0.492900
     20 C10         18.7970    11.4150    21.7650 c          1 U9X       0.591100
     21 O1          18.7210    10.9690    22.8990 o          1 U9X      -0.606100
     22 C6          19.6700    10.7410    20.7010 c3         1 U9X       0.038700
     23 C13         18.9340     9.5220    20.1480 c3         1 U9X      -0.087400
     24 C8          19.6480     8.7650    19.0240 c3         1 U9X      -0.058700
     25 C5          19.9810     9.6630    17.8390 c3         1 U9X      -0.091600
     26 C1          18.7750     7.5940    18.5840 c3         1 U9X      -0.091600
     27 N2          20.9330    10.3540    21.2810 ns         1 U9X      -0.484900
     28 C14         21.7100    11.2520    21.9020 c          1 U9X       0.591100
     29 O4          21.4560    12.4450    21.9210 o          1 U9X      -0.599100
     30 C15         22.9030    10.6530    22.6420 c3         1 U9X       0.095300
     31 C16         22.4630    10.1670    24.0180 c3         1 U9X      -0.070400
     32 C17         23.5710     9.5650    24.8880 c3         1 U9X      -0.059700
     33 C18         24.2770     8.3960    24.2110 c3         1 U9X      -0.089600
     34 C3          22.9740     9.1300    26.2230 c3         1 U9X      -0.089600
     35 O2          23.9090    11.6370    22.8360 os         1 U9X      -0.414100
     36 C19         24.4980    12.1410    21.7560 c          1 U9X       0.564100
     37 O3          24.2080    11.7930    20.6370 o          1 U9X      -0.492000
     38 C20         25.5650    13.1900    22.0660 c3         1 U9X       0.157500
     39 N4          25.0320    14.4830    22.4690 n3         1 U9X      -0.731600
     40 C26         24.0360    14.5270    23.5250 c3         1 U9X       0.154100
     41 C25         24.5890    15.2850    21.3460 c3         1 U9X       0.154100
     42 C21         26.7330    12.6750    22.9410 c3         1 U9X      -0.043700
     43 C24         26.5210    12.6610    24.4500 c3         1 U9X      -0.082100
     44 C22         27.2150    11.3160    22.4170 c3         1 U9X      -0.083400
     45 C23         28.6150    10.9380    22.8820 c3         1 U9X      -0.087100
     46 H1          18.9350    18.3050    17.0550 ha         1 U9X       0.225000
     47 H2          20.0740    21.7790    18.2900 h1         1 U9X       0.052700
     48 H3          20.6030    20.1820    17.7140 h1         1 U9X       0.052700
     49 H4          19.0210    20.8320    17.2140 h1         1 U9X       0.052700
     50 H5          17.2680    18.9970    20.7010 h1         1 U9X       0.095700
     51 H6          19.4380    19.3400    21.7670 hc         1 U9X       0.063700
     52 H7          18.5870    17.9550    22.3890 hc         1 U9X       0.063700
     53 H8          20.0730    16.5000    20.8540 hc         1 U9X       0.056700
     54 H9          21.8430    16.4610    22.5810 hc         1 U9X       0.034200
     55 H10         21.3120    18.0280    23.1900 hc         1 U9X       0.034200
     56 H11         20.2580    16.6210    23.3320 hc         1 U9X       0.034200
     57 H12         22.3470    17.4630    20.4220 hc         1 U9X       0.034200
     58 H13         21.1360    18.2040    19.3990 hc         1 U9X       0.034200
     59 H14         21.7330    19.0670    20.8180 hc         1 U9X       0.034200
     60 H15         15.7360    14.9680    19.5280 hc         1 U9X       0.077200
     61 H16         17.3890    14.4970    19.6620 hc         1 U9X       0.077200
     62 H17         15.4890    14.4690    22.0710 hc         1 U9X       0.061200
     63 H18         15.5740    13.1430    20.9420 hc         1 U9X       0.061200
     64 H19         16.8410    12.6900    22.9280 h1         1 U9X       0.074700
     65 H20         17.6100    15.0040    23.5290 hc         1 U9X       0.047700
     66 H21         18.9240    13.8280    23.5170 hc         1 U9X       0.047700
     67 H22         18.7510    14.9580    22.1820 hc         1 U9X       0.047700
     68 H23         18.3470    12.8260    20.4080 hn         1 U9X       0.310500
     69 H24         19.8550    11.4520    19.8900 h1         1 U9X       0.070700
     70 H25         17.9630     9.8630    19.7740 hc         1 U9X       0.057700
     71 H26         18.7260     8.8340    20.9730 hc         1 U9X       0.057700
     72 H27         20.5850     8.3500    19.4110 hc         1 U9X       0.042700
     73 H28         20.7030    10.4400    18.0940 hc         1 U9X       0.036367
     74 H29         20.4120     9.0800    17.0230 hc         1 U9X       0.036367
     75 H30         19.0830    10.1540    17.4560 hc         1 U9X       0.036367
     76 H31         18.5380     6.9340    19.4210 hc         1 U9X       0.036367
     77 H32         17.8310     7.9490    18.1640 hc         1 U9X       0.036367
     78 H33         19.2730     6.9960    17.8200 hc         1 U9X       0.036367
     79 H34         21.1590     9.3730    21.3450 hn         1 U9X       0.324500
     80 H35         23.3070     9.8200    22.0570 h1         1 U9X       0.063700
     81 H36         21.9910    10.9970    24.5530 hc         1 U9X       0.062700
     82 H37         21.6840     9.4140    23.8660 hc         1 U9X       0.062700
     83 H38         24.3140    10.3430    25.0900 hc         1 U9X       0.058700
     84 H39         25.0180     7.9570    24.8800 hc         1 U9X       0.033533
     85 H40         23.5660     7.6110    23.9420 hc         1 U9X       0.033533
     86 H41         24.8030     8.6940    23.3020 hc         1 U9X       0.033533
     87 H42         23.7460     8.7410    26.8880 hc         1 U9X       0.033533
     88 H43         22.4830     9.9610    26.7320 hc         1 U9X       0.033533
     89 H44         22.2310     8.3420    26.0780 hc         1 U9X       0.033533
     90 H45         26.0260    13.3630    21.0900 h1         1 U9X       0.073700
     91 H47         24.3000    13.8860    24.3600 h1         1 U9X       0.038367
     92 H48         23.9760    15.5490    23.9050 h1         1 U9X       0.038367
     93 H49         23.0320    14.2430    23.1890 h1         1 U9X       0.038367
     94 H50         24.3860    16.3020    21.6860 h1         1 U9X       0.038367
     95 H51         25.3660    15.3400    20.5830 h1         1 U9X       0.038367
     96 H52         23.6690    14.9150    20.8690 h1         1 U9X       0.038367
     97 H53         27.5330    13.3990    22.7460 hc         1 U9X       0.055700
     98 H54         27.4300    12.3230    24.9490 hc         1 U9X       0.038033
     99 H55         26.3110    13.6570    24.8360 hc         1 U9X       0.038033
    100 H56         25.7150    11.9940    24.7560 hc         1 U9X       0.038033
    101 H57         26.5120    10.5320    22.7180 hc         1 U9X       0.041700
    102 H58         27.2080    11.3290    21.3230 hc         1 U9X       0.041700
    103 H59         28.9270     9.9930    22.4360 hc         1 U9X       0.032700
    104 H60         29.3430    11.6970    22.5880 hc         1 U9X       0.032700
    105 H61         28.6770    10.8220    23.9640 hc         1 U9X       0.032700
@<TRIPOS>BOND
     1     1     2 2   
     2     2     3 1   
     3     2    15 1   
     4     3     4 1   
     5     3    10 1   
     6     4     5 2   
     7     4     6 1   
     8     6     7 2   
     9     6    46 1   
    10     7     8 1   
    11     7    10 1   
    12     8     9 1   
    13     9    47 1   
    14     9    48 1   
    15     9    49 1   
    16    10    11 1   
    17    10    50 1   
    18    11    12 1   
    19    11    51 1   
    20    11    52 1   
    21    12    13 1   
    22    12    14 1   
    23    12    53 1   
    24    13    54 1   
    25    13    55 1   
    26    13    56 1   
    27    14    57 1   
    28    14    58 1   
    29    14    59 1   
    30    15    16 1   
    31    15    60 1   
    32    15    61 1   
    33    16    17 1   
    34    16    62 1   
    35    16    63 1   
    36    17    18 1   
    37    17    19 1   
    38    17    64 1   
    39    18    65 1   
    40    18    66 1   
    41    18    67 1   
    42    19    20 1   
    43    19    68 1   
    44    20    21 2   
    45    20    22 1   
    46    22    23 1   
    47    22    27 1   
    48    22    69 1   
    49    23    24 1   
    50    23    70 1   
    51    23    71 1   
    52    24    25 1   
    53    24    26 1   
    54    24    72 1   
    55    25    73 1   
    56    25    74 1   
    57    25    75 1   
    58    26    76 1   
    59    26    77 1   
    60    26    78 1   
    61    27    28 1   
    62    27    79 1   
    63    28    29 2   
    64    28    30 1   
    65    30    31 1   
    66    30    35 1   
    67    30    80 1   
    68    31    32 1   
    69    31    81 1   
    70    31    82 1   
    71    32    33 1   
    72    32    34 1   
    73    32    83 1   
    74    33    84 1   
    75    33    85 1   
    76    33    86 1   
    77    34    87 1   
    78    34    88 1   
    79    34    89 1   
    80    35    36 1   
    81    36    37 2   
    82    36    38 1   
    83    38    39 1   
    84    38    42 1   
    85    38    90 1   
    86    39    40 1   
    87    39    41 1   
    88    40    91 1   
    89    40    92 1   
    90    40    93 1   
    91    41    94 1   
    92    41    95 1   
    93    41    96 1   
    94    42    43 1   
    95    42    44 1   
    96    42    97 1   
    97    43    98 1   
    98    43    99 1   
    99    43   100 1   
   100    44    45 1   
   101    44   101 1   
   102    44   102 1   
   103    45   103 1   
   104    45   104 1   
   105    45   105 1   
@<TRIPOS>SUBSTRUCTURE
     1 U9X         1 TEMP              0 ****  ****    0 ROOT
