@<TRIPOS>MOLECULE
U9Y
   43    46     1     0     0
SMALL
bcc


@<TRIPOS>ATOM
      1 C12        -97.1450    22.7920    75.2160 ca         1 U9Y       0.389500
      2 C13        -97.0790    21.5660    74.5530 ca         1 U9Y       0.104700
      3 C01        -97.3460    18.4860    74.6340 ca         1 U9Y      -0.089000
      4 C02        -97.5670    17.1500    74.3480 ca         1 U9Y      -0.127000
      5 C03        -98.8600    16.6600    74.2780 ca         1 U9Y      -0.107000
      6 C04        -99.9260    17.5210    74.4820 ca         1 U9Y       0.016400
      7 C05        -99.7100    18.8690    74.7610 ca         1 U9Y       0.052400
      8 C06        -98.4060    19.3660    74.8530 ca         1 U9Y      -0.076900
      9 C09        -98.0890    20.7640    75.1550 cc         1 U9Y       0.321900
     10 C15        -95.4730    23.6480    74.0070 ca         1 U9Y       0.616900
     11 C16        -95.4100    22.3850    73.3000 ca         1 U9Y       0.219900
     12 C19        -94.7460    25.9480    74.3730 c6         1 U9Y       0.216300
     13 C20        -95.4360    26.9200    73.4230 c6         1 U9Y      -0.098900
     14 C21        -94.6980    27.0590    72.0850 c6         1 U9Y       0.173200
     15 C22        -94.4300    25.6560    71.5220 c6         1 U9Y      -0.098900
     16 C23        -93.7840    24.7240    72.5410 c6         1 U9Y       0.216300
     17 C24        -93.3820    27.8240    72.2740 c3         1 U9Y      -0.127100
     18 N10        -98.6970    21.4550    76.0920 nd         1 U9Y      -0.489100
     19 N11        -98.1330    22.6690    76.1220 na         1 U9Y      -0.106800
     20 N14        -96.3740    23.8400    74.9640 nb         1 U9Y      -0.755000
     21 N17        -96.1910    21.3770    73.5670 nb         1 U9Y      -0.544000
     22 N18        -94.5970    24.6460    73.7440 nh         1 U9Y      -0.764300
     23 CL7       -101.0710    19.9070    74.9420 cl         1 U9Y      -0.067400
     24 CL8       -101.5290    16.8960    74.3820 cl         1 U9Y      -0.085400
     25 H1         -96.3330    18.8570    74.7040 ha         1 U9Y       0.151000
     26 H2         -96.7310    16.4840    74.1880 ha         1 U9Y       0.141000
     27 H3         -99.0450    15.6160    74.0650 ha         1 U9Y       0.149000
     28 H4         -94.6910    22.2320    72.5090 h4         1 U9Y       0.029100
     29 H5         -93.7470    26.3060    74.6360 h1         1 U9Y       0.061450
     30 H6         -95.3050    25.8500    75.2990 h1         1 U9Y       0.061450
     31 H7         -95.5230    27.8980    73.9060 hc         1 U9Y       0.060450
     32 H8         -96.4540    26.5670    73.2310 hc         1 U9Y       0.060450
     33 H9         -95.3790    25.2180    71.1990 hc         1 U9Y       0.060450
     34 H10        -93.7900    25.7220    70.6370 hc         1 U9Y       0.060450
     35 H11        -93.6230    23.7440    72.1030 h1         1 U9Y       0.061450
     36 H12        -92.7950    25.0870    72.8310 h1         1 U9Y       0.061450
     37 H13        -92.6920    27.3460    72.9710 hc         1 U9Y       0.038033
     38 H14        -92.8620    27.9230    71.3190 hc         1 U9Y       0.038033
     39 H15        -93.5810    28.8290    72.6530 hc         1 U9Y       0.038033
     40 H16        -98.4570    23.3550    76.7850 hn         1 U9Y       0.337700
     41 N25        -95.5870    27.7490    71.1520 n8         1 U9Y      -0.876800
     42 H17        -95.7700    28.6850    71.5010 hn         1 U9Y       0.337800
     43 H18        -95.1020    27.8850    70.2720 hn         1 U9Y       0.337800
@<TRIPOS>BOND
     1     1     2 ar  
     2     1    19 1   
     3     1    20 ar  
     4     2     9 1   
     5     2    21 ar  
     6     3     4 ar  
     7     3     8 ar  
     8     3    25 1   
     9     4     5 ar  
    10     4    26 1   
    11     5     6 ar  
    12     5    27 1   
    13     6     7 ar  
    14     6    24 1   
    15     7     8 ar  
    16     7    23 1   
    17     8     9 1   
    18     9    18 2   
    19    10    11 ar  
    20    10    20 ar  
    21    10    22 1   
    22    11    21 ar  
    23    11    28 1   
    24    12    13 1   
    25    12    22 1   
    26    12    29 1   
    27    12    30 1   
    28    13    14 1   
    29    13    31 1   
    30    13    32 1   
    31    14    15 1   
    32    14    17 1   
    33    14    41 1   
    34    15    16 1   
    35    15    33 1   
    36    15    34 1   
    37    16    22 1   
    38    16    35 1   
    39    16    36 1   
    40    17    37 1   
    41    17    38 1   
    42    17    39 1   
    43    18    19 1   
    44    19    40 1   
    45    41    42 1   
    46    41    43 1   
@<TRIPOS>SUBSTRUCTURE
     1 U9Y         1 TEMP              0 ****  ****    0 ROOT
