@<TRIPOS>MOLECULE
U9Y
   43    46     1     0     0
SMALL
No Charge or Current Charge


@<TRIPOS>ATOM
      1 C12        -97.1390    22.6510    75.3850 ca         1 U9Y       0.389500
      2 C13        -97.2780    21.4910    74.6430 ca         1 U9Y       0.104700
      3 C01        -97.2610    18.3640    74.5740 ca         1 U9Y      -0.071000
      4 C02        -97.5130    17.0250    74.2330 ca         1 U9Y      -0.109000
      5 C03        -98.7820    16.4700    74.4560 ca         1 U9Y      -0.089000
      6 C04        -99.8010    17.2550    75.0190 ca         1 U9Y       0.108000
      7 C05        -99.5550    18.6030    75.3660 ca         1 U9Y       0.144000
      8 C06        -98.2750    19.1690    75.1380 ca         1 U9Y      -0.076900
      9 C09        -97.9530    20.5490    75.5190 cc         1 U9Y       0.321900
     10 C15        -96.1110    23.6710    73.6180 ca         1 U9Y       0.616900
     11 C16        -96.2690    22.4580    72.8530 ca         1 U9Y       0.219900
     12 C19        -95.6680    26.1690    73.7690 c6         1 U9Y       0.216300
     13 C20        -95.5430    27.3320    72.7530 c6         1 U9Y      -0.098900
     14 C21        -94.2210    27.2700    71.9460 c6         1 U9Y       0.173200
     15 C22        -94.1200    25.8760    71.2740 c6         1 U9Y      -0.098900
     16 C23        -94.2460    24.7220    72.2970 c6         1 U9Y       0.216300
     17 C24        -92.9810    27.5800    72.8350 c3         1 U9Y      -0.127100
     18 N10        -98.2130    21.0740    76.7270 nd         1 U9Y      -0.489100
     19 N11        -97.7020    22.3760    76.6140 na         1 U9Y      -0.157100
     20 N14        -96.5560    23.7720    74.9010 nb         1 U9Y      -0.755000
     21 N17        -96.8620    21.3360    73.3580 nb         1 U9Y      -0.544000
     22 N18        -95.4970    24.8410    73.1020 nh         1 U9Y      -0.764300
     23 Cl7        100.8820    19.5760    76.0210 cl         1 U9Y      -0.159000
     24 Cl8       -101.3870    16.5210    75.2730 cl         1 U9Y      -0.177000
     25 H1         -96.2680    18.7740    74.4070 ha         1 U9Y       0.133000
     26 H2         -96.7210    16.4160    73.7990 ha         1 U9Y       0.123000
     27 H3         -98.9770    15.4340    74.1920 ha         1 U9Y       0.131000
     28 H4         -95.9270    22.3950    71.8220 h4         1 U9Y       0.029100
     29 H5         -94.9250    26.2900    74.5710 h1         1 U9Y       0.061450
     30 H6         -96.6610    26.2460    74.2360 h1         1 U9Y       0.061450
     31 H7         -95.6240    28.2890    73.2860 hc         1 U9Y       0.060450
     32 H8         -96.4010    27.2860    72.0680 hc         1 U9Y       0.060450
     33 H9         -94.9150    25.7670    70.5230 hc         1 U9Y       0.060450
     34 H10        -93.1700    25.7820    70.7320 hc         1 U9Y       0.060450
     35 H11        -94.2170    23.7730    71.7420 h1         1 U9Y       0.061450
     36 H12        -93.3700    24.7220    72.9630 h1         1 U9Y       0.061450
     37 H13        -92.8700    26.8640    73.6570 hc         1 U9Y       0.038033
     38 H14        -92.0520    27.5470    72.2530 hc         1 U9Y       0.038033
     39 H15        -93.0520    28.5770    73.2880 hc         1 U9Y       0.038033
     40 H16        -97.7510    23.0390    77.3820 hn         1 U9Y       0.388000
     41 N25        -94.2540    28.2990    70.8960 n8         1 U9Y      -0.987200
     42 H17        -95.0920    28.8750    71.0260 hn         1 U9Y       0.393000
     43 H18        -93.4840    28.9550    71.0610 hn         1 U9Y       0.393000
@<TRIPOS>BOND
     1     1     2 ar  
     2     1    19 1   
     3     1    20 ar  
     4     2     9 1   
     5     2    21 ar  
     6     3     4 ar  
     7     3     8 ar  
     8     3    25 1   
     9     4     5 ar  
    10     4    26 1   
    11     5     6 ar  
    12     5    27 1   
    13     6     7 ar  
    14     6    24 1   
    15     7     8 ar  
    16     7    23 1   
    17     8     9 1   
    18     9    18 2   
    19    10    11 ar  
    20    10    20 ar  
    21    10    22 1   
    22    11    21 ar  
    23    11    28 1   
    24    12    13 1   
    25    12    22 1   
    26    12    29 1   
    27    12    30 1   
    28    13    14 1   
    29    13    31 1   
    30    13    32 1   
    31    14    15 1   
    32    14    17 1   
    33    14    41 1   
    34    15    16 1   
    35    15    33 1   
    36    15    34 1   
    37    16    22 1   
    38    16    35 1   
    39    16    36 1   
    40    17    37 1   
    41    17    38 1   
    42    17    39 1   
    43    18    19 1   
    44    19    40 1   
    45    41    42 1   
    46    41    43 1   
@<TRIPOS>SUBSTRUCTURE
     1 U9Y         1 TEMP              0 ****  ****    0 ROOT
