@<TRIPOS>MOLECULE
U9Z
   37    38     1     0     0
SMALL
No Charge or Current Charge


@<TRIPOS>ATOM
      1 C4         -15.5710   -30.6720     2.4450 c6         1 U9Z       0.112000
      2 C14        -17.3960   -30.4440     0.0630 c6         1 U9Z      -0.091400
      3 C5         -13.9720   -29.1540     1.1760 c          1 U9Z       0.669100
      4 C6         -12.1860   -28.2550     2.7940 ca         1 U9Z       0.038000
      5 C11        -10.1400   -26.9940     2.3420 ca         1 U9Z      -0.026000
      6 C7         -11.9150   -28.1550     4.1700 ca         1 U9Z      -0.172500
      7 C8         -10.7750   -27.4780     4.6350 ca         1 U9Z      -0.026000
      8 C9          -9.8790   -26.8820     3.7230 ca         1 U9Z      -0.240300
      9 C10         -8.6280   -26.1520     4.2230 c3         1 U9Z       0.362300
     10 C12        -11.2820   -27.6720     1.8820 ca         1 U9Z      -0.172500
     11 C13        -15.8500   -30.3190    -0.0570 c6         1 U9Z       0.112000
     12 N1         -15.1370   -29.9560     1.2040 n          1 U9Z      -0.432800
     13 N2         -13.3570   -28.9590     2.4070 ns         1 U9Z      -0.166000
     14 C3         -16.8420   -31.5380     2.2790 c6         1 U9Z      -0.091400
     15 C1         -19.2830   -31.4670     1.4770 c3         1 U9Z      -0.088100
     16 C2         -17.9080   -30.7480     1.4960 c6         1 U9Z      -0.059700
     17 O1         -13.5620   -28.6700     0.1290 o          1 U9Z      -0.617100
     18 F1          -8.2510   -25.1520     3.3950 f          1 U9Z      -0.117000
     19 F2          -8.8100   -25.5940     5.4420 f          1 U9Z      -0.117000
     20 F3          -7.5770   -26.9960     4.3280 f          1 U9Z      -0.117000
     21 H1         -14.7510   -31.3090     2.8070 h1         1 U9Z       0.048950
     22 H2         -15.7710   -29.9210     3.2220 h1         1 U9Z       0.048950
     23 H3         -17.8600   -29.5100    -0.2830 hc         1 U9Z       0.052950
     24 H4         -17.7330   -31.2200    -0.6380 hc         1 U9Z       0.052950
     25 H5          -9.4560   -26.5590     1.6150 ha         1 U9Z       0.128000
     26 H6         -12.5940   -28.6050     4.8920 ha         1 U9Z       0.134000
     27 H7         -10.5910   -27.4220     5.7060 ha         1 U9Z       0.128000
     28 H8         -11.4390   -27.7380     0.8110 ha         1 U9Z       0.134000
     29 H9         -15.4510   -31.2880    -0.3890 h1         1 U9Z       0.048950
     30 H10        -15.6210   -29.5990    -0.8550 h1         1 U9Z       0.048950
     31 H11        -13.8330   -29.4060     3.1780 hn         1 U9Z       0.152000
     32 H12        -17.2210   -31.8260     3.2700 hc         1 U9Z       0.052950
     33 H13        -16.5980   -32.4700     1.7520 hc         1 U9Z       0.052950
     34 H14        -19.6630   -31.6200     2.4940 hc         1 U9Z       0.036367
     35 H15        -20.0300   -30.8780     0.9310 hc         1 U9Z       0.036367
     36 H16        -19.2140   -32.4500     0.9960 hc         1 U9Z       0.036367
     37 H17        -18.0730   -29.7920     2.0150 hc         1 U9Z       0.048700
@<TRIPOS>BOND
     1     1    12 1   
     2     1    14 1   
     3     1    21 1   
     4     1    22 1   
     5     2    11 1   
     6     2    16 1   
     7     2    23 1   
     8     2    24 1   
     9     3    12 1   
    10     3    13 1   
    11     3    17 2   
    12     4     6 ar  
    13     4    10 ar  
    14     4    13 1   
    15     5     8 ar  
    16     5    10 ar  
    17     5    25 1   
    18     6     7 ar  
    19     6    26 1   
    20     7     8 ar  
    21     7    27 1   
    22     8     9 1   
    23     9    18 1   
    24     9    19 1   
    25     9    20 1   
    26    10    28 1   
    27    11    12 1   
    28    11    29 1   
    29    11    30 1   
    30    13    31 1   
    31    14    16 1   
    32    14    32 1   
    33    14    33 1   
    34    15    16 1   
    35    15    34 1   
    36    15    35 1   
    37    15    36 1   
    38    16    37 1   
@<TRIPOS>SUBSTRUCTURE
     1 U9Z         1 TEMP              0 ****  ****    0 ROOT
