@<TRIPOS>MOLECULE
U9Z
   37    38     1     0     0
SMALL
bcc


@<TRIPOS>ATOM
      1 C4         -15.8290   -30.1900     2.6640 c6         1 U9Z       0.112000
      2 C14        -17.5760   -29.9390     0.5350 c6         1 U9Z      -0.091400
      3 C5         -14.1700   -28.9490     1.2980 c          1 U9Z       0.803100
      4 C6         -12.3770   -28.0430     2.7730 ca         1 U9Z       0.130600
      5 C11        -10.0970   -27.4690     2.2400 ca         1 U9Z      -0.044000
      6 C7         -12.1160   -27.6850     4.1030 ca         1 U9Z      -0.190500
      7 C8         -10.8730   -27.2390     4.4920 ca         1 U9Z      -0.044000
      8 C9          -9.8440   -27.1290     3.5610 ca         1 U9Z      -0.240300
      9 C10         -8.4860   -26.7180     4.0170 c3         1 U9Z       0.726200
     10 C12        -11.3460   -27.9160     1.8380 ca         1 U9Z      -0.190500
     11 C13        -16.0920   -29.9410     0.2000 c6         1 U9Z       0.112000
     12 N1         -15.3180   -29.6580     1.4030 n          1 U9Z      -0.499800
     13 N2         -13.6460   -28.5270     2.5050 ns         1 U9Z      -0.492100
     14 C3         -16.7210   -31.3900     2.4010 c6         1 U9Z      -0.091400
     15 C1         -18.5110   -32.2780     0.8790 c3         1 U9Z      -0.088100
     16 C2         -17.9470   -31.0340     1.5520 c6         1 U9Z      -0.059700
     17 O1         -13.6400   -28.6870     0.2270 o          1 U9Z      -0.617100
     18 F1          -7.7140   -26.2770     3.0180 f          1 U9Z      -0.238300
     19 F2          -8.5340   -25.7430     4.9360 f          1 U9Z      -0.238300
     20 F3          -7.8240   -27.7390     4.5920 f          1 U9Z      -0.238300
     21 H1         -14.9960   -30.5090     3.2920 h1         1 U9Z       0.048950
     22 H2         -16.3870   -29.4260     3.2200 h1         1 U9Z       0.048950
     23 H3         -17.8360   -28.9530     0.9270 hc         1 U9Z       0.052950
     24 H4         -18.1460   -30.0620    -0.3880 hc         1 U9Z       0.052950
     25 H5          -9.3210   -27.3920     1.4890 ha         1 U9Z       0.146000
     26 H6         -12.9010   -27.7690     4.8450 ha         1 U9Z       0.152000
     27 H7         -10.7160   -26.9810     5.5310 ha         1 U9Z       0.146000
     28 H8         -11.5040   -28.1660     0.8020 ha         1 U9Z       0.152000
     29 H9         -15.7970   -30.9020    -0.2360 h1         1 U9Z       0.048950
     30 H10        -15.8790   -29.1780    -0.5450 h1         1 U9Z       0.048950
     31 H11        -14.2450   -28.5750     3.3150 hn         1 U9Z       0.318500
     32 H12        -17.0300   -31.8140     3.3580 hc         1 U9Z       0.052950
     33 H13        -16.1270   -32.1620     1.9000 hc         1 U9Z       0.052950
     34 H14        -18.7290   -33.0580     1.6110 hc         1 U9Z       0.036367
     35 H15        -19.4340   -32.0540     0.3430 hc         1 U9Z       0.036367
     36 H16        -17.7990   -32.6920     0.1600 hc         1 U9Z       0.036367
     37 H17        -18.7140   -30.6280     2.2190 hc         1 U9Z       0.048700
@<TRIPOS>BOND
     1     1    12 1   
     2     1    14 1   
     3     1    21 1   
     4     1    22 1   
     5     2    11 1   
     6     2    16 1   
     7     2    23 1   
     8     2    24 1   
     9     3    12 1   
    10     3    13 1   
    11     3    17 2   
    12     4     6 ar  
    13     4    10 ar  
    14     4    13 1   
    15     5     8 ar  
    16     5    10 ar  
    17     5    25 1   
    18     6     7 ar  
    19     6    26 1   
    20     7     8 ar  
    21     7    27 1   
    22     8     9 1   
    23     9    18 1   
    24     9    19 1   
    25     9    20 1   
    26    10    28 1   
    27    11    12 1   
    28    11    29 1   
    29    11    30 1   
    30    13    31 1   
    31    14    16 1   
    32    14    32 1   
    33    14    33 1   
    34    15    16 1   
    35    15    34 1   
    36    15    35 1   
    37    15    36 1   
    38    16    37 1   
@<TRIPOS>SUBSTRUCTURE
     1 U9Z         1 TEMP              0 ****  ****    0 ROOT
