@<TRIPOS>MOLECULE
UA1
   68    69     1     0     0
SMALL
No Charge or Current Charge


@<TRIPOS>ATOM
      1 O50         -2.1020     6.5630     1.7900 o          1 UA1      -0.536000
      2 C49         -2.0990     5.4220     1.3560 c          1 UA1       0.656100
      3 O51         -3.0100     4.8550     0.5090 os         1 UA1      -0.485100
      4 C52         -4.1850     5.5630     0.0490 c3         1 UA1       0.225000
      5 C55         -3.7610     6.8020    -0.7810 c3         1 UA1      -0.106100
      6 C54         -4.9120     4.5460    -0.8600 c3         1 UA1      -0.106100
      7 C53         -5.0810     5.9200     1.2630 c3         1 UA1      -0.106100
      8 N32         -1.1750     4.4700     1.6780 ns         1 UA1      -0.495900
      9 C31         -0.1060     4.6280     2.6880 c3         1 UA1       0.062700
     10 C34         -0.5850     4.1540     4.0880 c3         1 UA1      -0.040100
     11 C37         -1.8750     4.8250     4.5520 ca         1 UA1      -0.111300
     12 C39         -1.8380     6.1140     5.1210 ca         1 UA1      -0.064000
     13 C42         -3.0280     6.7410     5.5310 ca         1 UA1      -0.173000
     14 C38         -4.2580     6.0840     5.3740 ca         1 UA1       0.135100
     15 O47         -5.4150     6.6870     5.7660 oh         1 UA1      -0.538100
     16 C41         -4.3010     4.8000     4.8110 ca         1 UA1      -0.173000
     17 C40         -3.1130     4.1700     4.4010 ca         1 UA1      -0.064000
     18 C28          1.1830     3.8740     2.2470 c          1 UA1       0.587100
     19 O30          1.2060     3.0640     1.3270 o          1 UA1      -0.589100
     20 N19          2.3100     4.1690     2.9890 ns         1 UA1      -0.484900
     21 C11          3.6650     3.6240     2.7370 c3         1 UA1       0.035700
     22 C20          4.3530     3.2380     4.0780 c          1 UA1       0.578100
     23 N22          5.4850     2.4600     3.9570 ns         1 UA1      -0.501900
     24 C23          6.2840     1.9860     5.0890 c3         1 UA1       0.092300
     25 O21          3.9300     3.5870     5.1740 o          1 UA1      -0.622100
     26 C66          4.5290     4.6320     1.9350 c3         1 UA1      -0.011100
     27 C7           3.9010     5.0540     0.6090 ca         1 UA1      -0.173300
     28 C4           3.9670     4.2000    -0.5070 ca         1 UA1      -0.066500
     29 C2           3.4000     4.5920    -1.7320 ca         1 UA1      -0.175500
     30 C3           3.2610     6.3020     0.4880 ca         1 UA1      -0.066500
     31 C6           2.6950     6.6890    -0.7390 ca         1 UA1      -0.175500
     32 C5           2.7530     5.8330    -1.8550 ca         1 UA1       0.358000
     33 N9           2.2440     6.2000    -3.0900 nu         1 UA1      -0.880100
     34 S14          0.8030     6.9150    -3.3770 s6         1 UA1       1.362700
     35 O15         -0.0420     6.3740    -2.3120 o          1 UA1      -0.697867
     36 O16          1.1390     8.3380    -3.2840 o          1 UA1      -0.697867
     37 O17          0.5420     6.4020    -4.7220 o          1 UA1      -0.697867
     38 H551        -2.9890     6.5350    -1.5130 hc         1 UA1       0.051144
     39 H552        -4.6200     7.2080    -1.3280 hc         1 UA1       0.051144
     40 H553        -3.3730     7.6070    -0.1470 hc         1 UA1       0.051144
     41 H541        -5.1780     3.6420    -0.2990 hc         1 UA1       0.051144
     42 H542        -4.2750     4.2510    -1.7020 hc         1 UA1       0.051144
     43 H543        -5.8340     4.9770    -1.2670 hc         1 UA1       0.051144
     44 H531        -4.6470     6.7190     1.8740 hc         1 UA1       0.051144
     45 H532        -6.0640     6.2690     0.9230 hc         1 UA1       0.051144
     46 H533        -5.2370     5.0430     1.9020 hc         1 UA1       0.051144
     47 HN32        -1.2790     3.5790     1.2100 hn         1 UA1       0.326500
     48 H31          0.1580     5.6910     2.7500 h1         1 UA1       0.071700
     49 H341         0.2080     4.3390     4.8230 hc         1 UA1       0.062700
     50 H342        -0.7190     3.0650     4.0640 hc         1 UA1       0.062700
     51 H39         -0.8880     6.6320     5.2380 ha         1 UA1       0.114000
     52 H42         -2.9850     7.7370     5.9650 ha         1 UA1       0.117500
     53 HO47        -5.1950     7.5690     6.1340 ho         1 UA1       0.462000
     54 H41         -5.2540     4.2930     4.6890 ha         1 UA1       0.117500
     55 H40         -3.1570     3.1780     3.9570 ha         1 UA1       0.114000
     56 HN19         2.1970     4.8190     3.7580 hn         1 UA1       0.319500
     57 H11          3.5760     2.6980     2.1530 h1         1 UA1       0.096700
     58 HN22         5.7750     2.2040     3.0200 hn         1 UA1       0.323500
     59 H231         5.6630     1.3630     5.7460 h1         1 UA1       0.036367
     60 H232         6.6680     2.8440     5.6550 h1         1 UA1       0.036367
     61 H233         7.1280     1.3900     4.7180 h1         1 UA1       0.036367
     62 H661         5.5150     4.1900     1.7440 hc         1 UA1       0.044200
     63 H662         4.7140     5.5140     2.5610 hc         1 UA1       0.044200
     64 H4           4.4620     3.2340    -0.4290 ha         1 UA1       0.099500
     65 H2           3.4670     3.9280    -2.5880 ha         1 UA1       0.124000
     66 H3           3.2050     6.9750     1.3400 ha         1 UA1       0.099500
     67 H6           2.2180     7.6610    -0.8220 ha         1 UA1       0.124000
     68 HN9          2.2200     5.4750    -3.7840 hn         1 UA1       0.455000
@<TRIPOS>BOND
     1     1     2 2   
     2     2     3 1   
     3     2     8 1   
     4     3     4 1   
     5     4     5 1   
     6     4     6 1   
     7     4     7 1   
     8     5    38 1   
     9     5    39 1   
    10     5    40 1   
    11     6    41 1   
    12     6    42 1   
    13     6    43 1   
    14     7    44 1   
    15     7    45 1   
    16     7    46 1   
    17     8     9 1   
    18     8    47 1   
    19     9    10 1   
    20     9    18 1   
    21     9    48 1   
    22    10    11 1   
    23    10    49 1   
    24    10    50 1   
    25    11    12 ar  
    26    11    17 ar  
    27    12    13 ar  
    28    12    51 1   
    29    13    14 ar  
    30    13    52 1   
    31    14    15 1   
    32    14    16 ar  
    33    15    53 1   
    34    16    17 ar  
    35    16    54 1   
    36    17    55 1   
    37    18    19 2   
    38    18    20 1   
    39    20    21 1   
    40    20    56 1   
    41    21    22 1   
    42    21    26 1   
    43    21    57 1   
    44    22    23 1   
    45    22    25 2   
    46    23    24 1   
    47    23    58 1   
    48    24    59 1   
    49    24    60 1   
    50    24    61 1   
    51    26    27 1   
    52    26    62 1   
    53    26    63 1   
    54    27    28 ar  
    55    27    30 ar  
    56    28    29 ar  
    57    28    64 1   
    58    29    32 ar  
    59    29    65 1   
    60    30    31 ar  
    61    30    66 1   
    62    31    32 ar  
    63    31    67 1   
    64    32    33 1   
    65    33    34 1   
    66    33    68 1   
    67    34    35 1   
    68    34    36 1   
    69    34    37 1   
@<TRIPOS>SUBSTRUCTURE
     1 UA1         1 TEMP              0 ****  ****    0 ROOT
