@<TRIPOS>MOLECULE
UA1
   68    69     1     0     0
SMALL
abcg2


@<TRIPOS>ATOM
      1 O50         -0.9950     6.1120     1.1070 o          1 UA1      -0.536000
      2 C49         -1.8480     5.2990     1.4080 c          1 UA1       0.656100
      3 O51         -2.9710     5.0520     0.7420 os         1 UA1      -0.485100
      4 C52         -3.2820     5.6520    -0.5450 c3         1 UA1       0.225000
      5 C55         -2.2720     5.2140    -1.5950 c3         1 UA1      -0.106100
      6 C54         -4.6530     5.0730    -0.8710 c3         1 UA1      -0.106100
      7 C53         -3.3750     7.1690    -0.4340 c3         1 UA1      -0.106100
      8 N32         -1.7800     4.5240     2.5170 ns         1 UA1      -0.495900
      9 C31         -0.6020     4.5190     3.3400 c3         1 UA1       0.062700
     10 C34         -0.8340     3.6500     4.5850 c3         1 UA1      -0.040100
     11 C37         -1.9710     4.1540     5.4280 ca         1 UA1      -0.111300
     12 C39         -1.8250     5.2880     6.2230 ca         1 UA1      -0.064000
     13 C42         -2.8740     5.7760     6.9850 ca         1 UA1      -0.173000
     14 C38         -4.1080     5.1290     6.9660 ca         1 UA1       0.135100
     15 O47         -5.1630     5.5510     7.6900 oh         1 UA1      -0.538100
     16 C41         -4.2700     3.9930     6.1790 ca         1 UA1      -0.173000
     17 C40         -3.2090     3.5190     5.4240 ca         1 UA1      -0.064000
     18 C28          0.6230     3.9690     2.5930 c          1 UA1       0.587100
     19 O30          0.5400     3.0310     1.8160 o          1 UA1      -0.589100
     20 N19          1.7740     4.5860     2.9170 ns         1 UA1      -0.484900
     21 C11          3.0910     4.1790     2.4950 c3         1 UA1       0.035700
     22 C20          3.8550     3.6350     3.7030 c          1 UA1       0.578100
     23 N22          4.5360     2.5050     3.4910 ns         1 UA1      -0.501900
     24 C23          5.3270     1.8580     4.5120 c3         1 UA1       0.092300
     25 O21          3.8540     4.2410     4.7620 o          1 UA1      -0.622100
     26 C66          3.8860     5.3560     1.8950 c3         1 UA1      -0.011100
     27 C7           3.4590     5.7490     0.5070 ca         1 UA1      -0.173300
     28 C4           4.3290     5.5820    -0.5670 ca         1 UA1      -0.066500
     29 C2           3.9600     5.9350    -1.8580 ca         1 UA1      -0.175500
     30 C3           2.2010     6.2880     0.2330 ca         1 UA1      -0.066500
     31 C6           1.8230     6.6500    -1.0420 ca         1 UA1      -0.175500
     32 C5           2.7010     6.4770    -2.1190 ca         1 UA1       0.358000
     33 N9           2.3820     6.8690    -3.4140 nu         1 UA1      -0.880100
     34 S14          0.8140     6.6440    -4.0790 s6         1 UA1       1.362700
     35 O15          0.3590     5.3130    -3.6600 o          1 UA1      -0.697867
     36 O16          0.0150     7.7420    -3.5280 o          1 UA1      -0.697867
     37 O17          1.0870     6.7620    -5.5140 o          1 UA1      -0.697867
     38 H551        -2.2150     4.1250    -1.6520 hc         1 UA1       0.051144
     39 H552        -2.5780     5.5800    -2.5740 hc         1 UA1       0.051144
     40 H553        -1.2760     5.6040    -1.4030 hc         1 UA1       0.051144
     41 H541        -5.3910     5.3490    -0.1150 hc         1 UA1       0.051144
     42 H542        -4.6200     3.9850    -0.9400 hc         1 UA1       0.051144
     43 H543        -4.9970     5.4590    -1.8300 hc         1 UA1       0.051144
     44 H531        -2.4080     7.6360    -0.2610 hc         1 UA1       0.051144
     45 H532        -3.7770     7.5720    -1.3650 hc         1 UA1       0.051144
     46 H533        -4.0540     7.4630     0.3680 hc         1 UA1       0.051144
     47 HN32        -2.4700     3.8010     2.6470 hn         1 UA1       0.326500
     48 H31         -0.3990     5.5420     3.6710 h1         1 UA1       0.071700
     49 H341         0.0920     3.6350     5.1660 hc         1 UA1       0.062700
     50 H342        -1.0230     2.6190     4.2730 hc         1 UA1       0.062700
     51 H39         -0.8710     5.8030     6.2590 ha         1 UA1       0.114000
     52 H42         -2.7280     6.6580     7.5980 ha         1 UA1       0.117500
     53 HO47        -4.9380     6.3490     8.1800 ho         1 UA1       0.462000
     54 H41         -5.2240     3.4800     6.1610 ha         1 UA1       0.117500
     55 H40         -3.3530     2.6280     4.8230 ha         1 UA1       0.114000
     56 HN19         1.7320     5.3290     3.5980 hn         1 UA1       0.319500
     57 H11          2.9680     3.4080     1.7330 h1         1 UA1       0.096700
     58 HN22         4.4020     2.0150     2.6220 hn         1 UA1       0.323500
     59 H231         4.7110     1.2780     5.2020 h1         1 UA1       0.036367
     60 H232         5.8860     2.5950     5.0850 h1         1 UA1       0.036367
     61 H233         6.0370     1.1880     4.0340 h1         1 UA1       0.036367
     62 H661         4.9430     5.0770     1.8680 hc         1 UA1       0.044200
     63 H662         3.8140     6.2080     2.5840 hc         1 UA1       0.044200
     64 H4           5.3210     5.1730    -0.3990 ha         1 UA1       0.099500
     65 H2           4.6640     5.7960    -2.6710 ha         1 UA1       0.124000
     66 H3           1.4840     6.4270     1.0320 ha         1 UA1       0.099500
     67 H6           0.8390     7.0700    -1.2020 ha         1 UA1       0.124000
     68 HN9          3.0900     6.6120    -4.0890 hn         1 UA1       0.455000
@<TRIPOS>BOND
     1     1     2 2   
     2     2     3 1   
     3     2     8 1   
     4     3     4 1   
     5     4     5 1   
     6     4     6 1   
     7     4     7 1   
     8     5    38 1   
     9     5    39 1   
    10     5    40 1   
    11     6    41 1   
    12     6    42 1   
    13     6    43 1   
    14     7    44 1   
    15     7    45 1   
    16     7    46 1   
    17     8     9 1   
    18     8    47 1   
    19     9    10 1   
    20     9    18 1   
    21     9    48 1   
    22    10    11 1   
    23    10    49 1   
    24    10    50 1   
    25    11    12 ar  
    26    11    17 ar  
    27    12    13 ar  
    28    12    51 1   
    29    13    14 ar  
    30    13    52 1   
    31    14    15 1   
    32    14    16 ar  
    33    15    53 1   
    34    16    17 ar  
    35    16    54 1   
    36    17    55 1   
    37    18    19 2   
    38    18    20 1   
    39    20    21 1   
    40    20    56 1   
    41    21    22 1   
    42    21    26 1   
    43    21    57 1   
    44    22    23 1   
    45    22    25 2   
    46    23    24 1   
    47    23    58 1   
    48    24    59 1   
    49    24    60 1   
    50    24    61 1   
    51    26    27 1   
    52    26    62 1   
    53    26    63 1   
    54    27    28 ar  
    55    27    30 ar  
    56    28    29 ar  
    57    28    64 1   
    58    29    32 ar  
    59    29    65 1   
    60    30    31 ar  
    61    30    66 1   
    62    31    32 ar  
    63    31    67 1   
    64    32    33 1   
    65    33    34 1   
    66    33    68 1   
    67    34    35 1   
    68    34    36 1   
    69    34    37 1   
@<TRIPOS>SUBSTRUCTURE
     1 UA1         1 TEMP              0 ****  ****    0 ROOT
