@<TRIPOS>MOLECULE
UA2
   34    36     1     0     0
SMALL
No Charge or Current Charge


@<TRIPOS>ATOM
      1 C2          -3.4580    -1.6270     0.6630 ca         1 UA2       0.137900
      2 C4          -1.7530    -0.1640     0.3370 ca         1 UA2       0.122800
      3 C5          -2.6070     0.7330    -0.2350 ca         1 UA2      -0.218200
      4 C6          -3.9600     0.3810    -0.3430 ca         1 UA2       0.386900
      5 O5           4.7990     1.8770     0.8750 oh         1 UA2      -0.656000
      6 C11          4.2520     1.1240    -0.2260 c3         1 UA2       0.174600
      7 C10          3.1360     0.1470     0.2530 c5         1 UA2       0.179500
      8 N4           1.9440     0.8380     0.8200 n7         1 UA2      -0.886400
      9 C3           2.4980    -0.7050    -0.8850 c5         1 UA2       0.109300
     10 O3           3.3860    -1.6810    -1.4610 oh         1 UA2      -0.657000
     11 C7           1.3270    -1.3710    -0.0980 c5         1 UA2       0.124300
     12 O2           1.8030    -2.5060     0.6480 oh         1 UA2      -0.656000
     13 C1           0.8570    -0.1840     0.8330 c5         1 UA2       0.256700
     14 C9          -0.4430     0.4140     0.3350 cc         1 UA2      -0.269000
     15 N3          -2.1340    -1.3660     0.8040 nb         1 UA2      -0.170000
     16 N1          -4.3940    -0.8100     0.1100 nb         1 UA2      -0.270000
     17 C8          -0.5780     1.6720    -0.2560 cd         1 UA2      -0.114100
     18 N7          -1.9330     1.8870    -0.6150 na         1 UA2      -0.207700
     19 N6          -4.9000     1.1900    -0.9010 nv         1 UA2      -1.069900
     20 H2          -3.8060    -2.5910     1.0290 h5         1 UA2       0.045100
     21 HO5          5.4350     2.5190     0.4900 ho         1 UA2       0.440000
     22 H5'1         3.8310     1.8030    -0.9790 h1         1 UA2       0.021200
     23 H5'2         5.0460     0.5410    -0.7110 h1         1 UA2       0.021200
     24 H4           3.5830    -0.5180     1.0070 h1         1 UA2       0.065700
     25 HN4          2.1480     1.1660     1.7710 hn         1 UA2       0.441000
     26 H3           2.1010    -0.0440    -1.6690 h1         1 UA2       0.048700
     27 HO3          3.0490    -1.8850    -2.3630 ho         1 UA2       0.449000
     28 H6           0.5240    -1.6810    -0.7810 h1         1 UA2       0.067700
     29 HO2          2.6150    -2.7870     0.1660 ho         1 UA2       0.455000
     30 H1           0.7020    -0.5640     1.8550 h1         1 UA2       0.086700
     31 H8           0.1880     2.4220    -0.4450 h4         1 UA2       0.230000
     32 HN7         -2.3230     2.7210    -1.0470 hn         1 UA2       0.350000
     33 HN61        -4.5960     1.9610    -1.4890 hn         1 UA2       0.481500
     34 HN62        -5.8130     0.7930    -1.1120 hn         1 UA2       0.481500
@<TRIPOS>BOND
     1     1    15 ar  
     2     1    16 ar  
     3     1    20 1   
     4     2     3 ar  
     5     2    14 1   
     6     2    15 ar  
     7     3     4 ar  
     8     3    18 1   
     9     4    16 ar  
    10     4    19 1   
    11     5     6 1   
    12     5    21 1   
    13     6     7 1   
    14     6    22 1   
    15     6    23 1   
    16     7     8 1   
    17     7     9 1   
    18     7    24 1   
    19     8    13 1   
    20     8    25 1   
    21     9    10 1   
    22     9    11 1   
    23     9    26 1   
    24    10    27 1   
    25    11    12 1   
    26    11    13 1   
    27    11    28 1   
    28    12    29 1   
    29    13    14 1   
    30    13    30 1   
    31    14    17 2   
    32    17    18 1   
    33    17    31 1   
    34    18    32 1   
    35    19    33 1   
    36    19    34 1   
@<TRIPOS>SUBSTRUCTURE
     1 UA2         1 TEMP              0 ****  ****    0 ROOT
