@<TRIPOS>MOLECULE
UA2
   34    36     1     0     0
SMALL
abcg2


@<TRIPOS>ATOM
      1 C2          -3.3750    -1.5620     0.4110 ca         1 UA2       0.137900
      2 C4          -1.6100    -0.2000     0.3280 ca         1 UA2       0.122800
      3 C5          -2.4000     0.7840    -0.2770 ca         1 UA2      -0.218200
      4 C6          -3.7510     0.4990    -0.5290 ca         1 UA2       0.386900
      5 O5           4.3960     2.1110     0.4490 oh         1 UA2      -0.656000
      6 C11          3.6940     1.3290    -0.4910 c3         1 UA2       0.174600
      7 C10          3.0770     0.1440     0.2200 c5         1 UA2       0.179500
      8 N4           2.0390     0.5430     1.1650 n7         1 UA2      -0.886400
      9 C3           2.3570    -0.7990    -0.7430 c5         1 UA2       0.109300
     10 O3           3.2750    -1.6550    -1.3770 oh         1 UA2      -0.657000
     11 C7           1.3630    -1.5160     0.1720 c5         1 UA2       0.124300
     12 O2           2.0230    -2.4710     0.9680 oh         1 UA2      -0.656000
     13 C1           0.8920    -0.3630     1.0610 c5         1 UA2       0.256700
     14 C9          -0.2970     0.3320     0.4680 cc         1 UA2      -0.269000
     15 N3          -2.1020    -1.4050     0.6850 nb         1 UA2      -0.170000
     16 N1          -4.2120    -0.6950    -0.1690 nb         1 UA2      -0.270000
     17 C8          -0.3540     1.6010    -0.0470 cd         1 UA2      -0.114100
     18 N7          -1.6090     1.8750    -0.4970 na         1 UA2      -0.207700
     19 N6          -4.6060     1.3870    -1.0790 nv         1 UA2      -1.069900
     20 H2          -3.8160    -2.5170     0.6820 h5         1 UA2       0.045100
     21 HO5          4.7890     2.8560    -0.0130 ho         1 UA2       0.440000
     22 H5'1         2.8930     1.9030    -0.9770 h1         1 UA2       0.021200
     23 H5'2         4.3590     0.9630    -1.2850 h1         1 UA2       0.021200
     24 H4           3.8800    -0.4190     0.7150 h1         1 UA2       0.065700
     25 HN4          2.3930     0.5800     2.1080 hn         1 UA2       0.441000
     26 H3           1.7940    -0.2110    -1.4810 h1         1 UA2       0.048700
     27 HO3          2.8500    -2.0400    -2.1500 ho         1 UA2       0.449000
     28 H6           0.5360    -1.9720    -0.3870 h1         1 UA2       0.067700
     29 HO2          2.6530    -2.9330     0.4020 ho         1 UA2       0.455000
     30 H1           0.6110    -0.7540     2.0450 h1         1 UA2       0.086700
     31 H8           0.4270     2.3400    -0.1160 h4         1 UA2       0.230000
     32 HN7         -1.8880     2.7500    -0.9070 hn         1 UA2       0.350000
     33 HN61        -4.2540     2.1800    -1.5860 hn         1 UA2       0.481500
     34 HN62        -5.4990     1.0400    -1.3860 hn         1 UA2       0.481500
@<TRIPOS>BOND
     1     1    15 ar  
     2     1    16 ar  
     3     1    20 1   
     4     2     3 ar  
     5     2    14 1   
     6     2    15 ar  
     7     3     4 ar  
     8     3    18 1   
     9     4    16 ar  
    10     4    19 1   
    11     5     6 1   
    12     5    21 1   
    13     6     7 1   
    14     6    22 1   
    15     6    23 1   
    16     7     8 1   
    17     7     9 1   
    18     7    24 1   
    19     8    13 1   
    20     8    25 1   
    21     9    10 1   
    22     9    11 1   
    23     9    26 1   
    24    10    27 1   
    25    11    12 1   
    26    11    13 1   
    27    11    28 1   
    28    12    29 1   
    29    13    14 1   
    30    13    30 1   
    31    14    17 2   
    32    17    18 1   
    33    17    31 1   
    34    18    32 1   
    35    19    33 1   
    36    19    34 1   
@<TRIPOS>SUBSTRUCTURE
     1 UA2         1 TEMP              0 ****  ****    0 ROOT
