@<TRIPOS>MOLECULE
UA3
   32    33     1     0     0
SMALL
abcg2


@<TRIPOS>ATOM
      1 N1          36.5100    -1.8760    11.6550 n          1 UA3      -0.287000
      2 C2          35.3360    -2.4670    11.2210 c          1 UA3       0.628000
      3 O2          34.6280    -1.9940    10.3440 o          1 UA3      -0.585000
      4 N3          35.0230    -3.6490    11.8520 ns         1 UA3      -0.470500
      5 C4          35.7330    -4.2890    12.8670 c          1 UA3       0.599200
      6 O4          35.3150    -5.3430    13.3380 o          1 UA3      -0.605000
      7 C5          36.9340    -3.5960    13.2540 cc         1 UA3      -0.446200
      8 C6          37.2660    -2.4380    12.6470 cd         1 UA3       0.069600
      9 O5          39.9940    -0.7260    13.2790 oh         1 UA3      -0.714000
     10 C9          40.1350     0.3010    12.2980 c3         1 UA3       0.170600
     11 C8          38.7880     0.6440    11.7120 c5         1 UA3       0.141300
     12 O7          38.2770    -0.4800    10.9570 os         1 UA3      -0.504000
     13 C3          37.6880     0.9860    12.7090 c5         1 UA3       0.182300
     14 O3          37.7630     2.3370    13.0980 os         1 UA3      -0.573400
     15 C7          36.4230     0.6310    11.9230 c5         1 UA3       0.138300
     16 O6          35.2980     0.3530    12.7130 oh         1 UA3      -0.819000
     17 C1          36.8740    -0.5700    11.0670 c5         1 UA3       0.316700
     18 O3P         35.5360     2.3450    14.3470 o          1 UA3      -0.895500
     19 O1P         37.2030     4.2760    14.5620 o          1 UA3      -0.895500
     20 O2P         37.7110     1.9980    15.6360 o          1 UA3      -0.895500
     21 H3          34.1680    -4.0930    11.5410 hn         1 UA3       0.316500
     22 H5          37.5580    -4.0190    14.0250 ha         1 UA3       0.207000
     23 H6          38.1710    -1.9020    12.8970 h4         1 UA3       0.252000
     24 H8          40.8700    -1.0580    13.5050 ho         1 UA3       0.478000
     25 H51         40.5470     1.2130    12.7450 h1         1 UA3       0.022700
     26 H52         40.8050    -0.0210    11.4950 h1         1 UA3       0.022700
     27 H4          38.9250     1.4940    11.0340 h1         1 UA3       0.058700
     28 H7          37.7610     0.3350    13.5850 h1         1 UA3       0.069700
     29 H2          36.2270     1.4610    11.2310 h1         1 UA3       0.035700
     30 HB          35.2850     1.0980    13.3990 ho         1 UA3       0.620000
     31 H1          36.4200    -0.5620    10.0810 h2         1 UA3       0.078700
     32 P           37.0030     2.7760    14.5410 p5         1 UA3       1.284900
@<TRIPOS>BOND
     1     1     2 1   
     2     1     8 1   
     3     1    17 1   
     4     2     3 2   
     5     2     4 1   
     6     4     5 1   
     7     4    21 1   
     8     5     6 2   
     9     5     7 1   
    10     7     8 2   
    11     7    22 1   
    12     8    23 1   
    13     9    10 1   
    14     9    24 1   
    15    10    11 1   
    16    10    25 1   
    17    10    26 1   
    18    11    12 1   
    19    11    13 1   
    20    11    27 1   
    21    12    17 1   
    22    13    14 1   
    23    13    15 1   
    24    13    28 1   
    25    14    32 1   
    26    15    16 1   
    27    15    17 1   
    28    15    29 1   
    29    16    30 1   
    30    17    31 1   
    31    18    32 1   
    32    19    32 1   
    33    20    32 1   
@<TRIPOS>SUBSTRUCTURE
     1 UA3         1 TEMP              0 ****  ****    0 ROOT
