@<TRIPOS>MOLECULE
UA3
   32    33     1     0     0
SMALL
No Charge or Current Charge


@<TRIPOS>ATOM
      1 N1          36.4770    -1.9150    11.6950 n          1 UA3      -0.287000
      2 C2          35.2840    -2.4950    11.2190 c          1 UA3       0.628000
      3 O2          34.6190    -2.0220    10.3100 o          1 UA3      -0.585000
      4 N3          34.8930    -3.6500    11.8230 ns         1 UA3      -0.470500
      5 C4          35.5140    -4.3230    12.8210 c          1 UA3       0.599200
      6 O4          35.0650    -5.3550    13.2870 o          1 UA3      -0.605000
      7 C5          36.7540    -3.7000    13.2610 cc         1 UA3      -0.446200
      8 C6          37.2180    -2.5300    12.7050 cd         1 UA3       0.069600
      9 O5          40.3950    -0.5660    13.2380 oh         1 UA3      -0.714000
     10 C9          40.2900     0.4440    12.2150 c3         1 UA3       0.170600
     11 C8          38.8310     0.6100    11.7030 c5         1 UA3       0.141300
     12 O7          38.3770    -0.5910    11.0250 os         1 UA3      -0.504000
     13 C3          37.7560     0.8820    12.7940 c5         1 UA3       0.182300
     14 O3          37.7870     2.2910    13.1550 os         1 UA3      -0.573400
     15 C7          36.4560     0.5830    11.9720 c5         1 UA3       0.138300
     16 O6          35.2860     0.3830    12.7950 oh         1 UA3      -0.819000
     17 C1          36.9280    -0.6370    11.0740 c5         1 UA3       0.316700
     18 O3P         35.5380     2.3280    14.3070 o          1 UA3      -0.895500
     19 O1P         37.0420     4.2170    14.5990 o          1 UA3      -0.895500
     20 O2P         37.5470     2.0910    15.6660 o          1 UA3      -0.895500
     21 H3          34.0360    -4.0550    11.4830 hn         1 UA3       0.316500
     22 H5          37.2890    -4.2150    14.0510 ha         1 UA3       0.207000
     23 H6          38.1420    -2.0270    12.9860 h4         1 UA3       0.252000
     24 H8          41.3460    -0.6230    13.4850 ho         1 UA3       0.478000
     25 H51         40.6310     1.4110    12.6080 h1         1 UA3       0.022700
     26 H52         40.9340     0.1910    11.3620 h1         1 UA3       0.022700
     27 H4          38.8260     1.4270    10.9670 h1         1 UA3       0.058700
     28 H7          37.8700     0.2370    13.6760 h1         1 UA3       0.069700
     29 H2          36.2660     1.4330    11.3010 h1         1 UA3       0.035700
     30 HB          35.3100     1.1820    13.4490 ho         1 UA3       0.620000
     31 H1          36.5070    -0.5770    10.0630 h2         1 UA3       0.078700
     32 P           36.9610     2.7390    14.4640 p5         1 UA3       1.284900
@<TRIPOS>BOND
     1     1     2 1   
     2     1     8 1   
     3     1    17 1   
     4     2     3 2   
     5     2     4 1   
     6     4     5 1   
     7     4    21 1   
     8     5     6 2   
     9     5     7 1   
    10     7     8 2   
    11     7    22 1   
    12     8    23 1   
    13     9    10 1   
    14     9    24 1   
    15    10    11 1   
    16    10    25 1   
    17    10    26 1   
    18    11    12 1   
    19    11    13 1   
    20    11    27 1   
    21    12    17 1   
    22    13    14 1   
    23    13    15 1   
    24    13    28 1   
    25    14    32 1   
    26    15    16 1   
    27    15    17 1   
    28    15    29 1   
    29    16    30 1   
    30    17    31 1   
    31    18    32 1   
    32    19    32 1   
    33    20    32 1   
@<TRIPOS>SUBSTRUCTURE
     1 UA3         1 TEMP              0 ****  ****    0 ROOT
