@<TRIPOS>MOLECULE
UA4
   62    65     1     0     0
SMALL
bcc


@<TRIPOS>ATOM
      1 C5           1.0930     3.3840    -2.9670 ca         1 UA4       0.939900
      2 C10         -2.3140     1.1550    -4.4300 c3         1 UA4      -0.082100
      3 C13         -0.4350    -2.2900    -0.4930 ca         1 UA4      -0.121000
      4 C15         -0.4320    -2.7870    -2.8550 ca         1 UA4       0.018600
      5 C24         -0.3940    -2.7440    -7.5210 c3         1 UA4       0.138400
      6 C26         -0.8600    -2.0280    -9.6950 c3         1 UA4       0.123700
      7 C28         -3.9530    -4.0180    -3.3240 ca         1 UA4      -0.170000
      8 C31         -4.8560    -3.0820    -0.9020 ca         1 UA4       0.163400
      9 C32         -3.6570    -3.7610    -0.9480 ca         1 UA4      -0.170000
     10 C30         -5.6300    -2.8430    -2.0210 ca         1 UA4      -0.209000
     11 C29         -5.1470    -3.3300    -3.2180 ca         1 UA4       0.163400
     12 F33         -5.8670    -3.1240    -4.3270 f          1 UA4      -0.134400
     13 C27         -3.1970    -4.2260    -2.1770 ca         1 UA4      -0.063300
     14 C18         -1.8850    -5.0030    -2.2210 c6         1 UA4       0.133100
     15 C35         -2.1190    -6.4530    -1.8350 c3         1 UA4      -0.072100
     16 C19         -1.2540    -4.9050    -3.6140 c          1 UA4       0.690500
     17 O21         -1.3910    -5.7820    -4.4440 o          1 UA4      -0.601500
     18 N20         -0.5630    -3.7610    -3.8540 n          1 UA4      -0.366000
     19 O25         -1.3560    -2.2110    -8.3940 os         1 UA4      -0.404600
     20 C16         -0.0860    -1.4690    -3.1200 ca         1 UA4      -0.130000
     21 C14         -0.6150    -3.1840    -1.5320 ca         1 UA4       0.074100
     22 O17         -0.9680    -4.4690    -1.2750 os         1 UA4      -0.305900
     23 C12         -0.0800    -0.9780    -0.7700 ca         1 UA4      -0.129000
     24 C11          0.0800    -0.5510    -2.0860 cp         1 UA4       0.001000
     25 C2           0.4210     0.8560    -2.3940 cp         1 UA4      -0.416600
     26 C1          -0.5160     1.7920    -2.7990 ca         1 UA4       0.540600
     27 C9          -1.9660     1.4380    -2.9690 c3         1 UA4      -0.136700
     28 C3           1.7550     1.3190    -2.3000 ca         1 UA4       0.759200
     29 N7           2.7570     0.4920    -1.9480 nv         1 UA4      -0.963500
     30 N4           2.0810     2.5760    -2.5860 nb         1 UA4      -0.859000
     31 N6          -0.1910     3.0540    -3.0890 nb         1 UA4      -0.813000
     32 N8           1.4220     4.6730    -3.2150 nv         1 UA4      -0.943500
     33 H101        -2.0830     2.0120    -5.0640 hc         1 UA4       0.037700
     34 H102        -3.3760     0.9340    -4.5350 hc         1 UA4       0.037700
     35 H103        -1.7580     0.2980    -4.8120 hc         1 UA4       0.037700
     36 H13         -0.5800    -2.6220     0.5270 ha         1 UA4       0.149000
     37 H221         0.3330    -4.5060    -5.5660 h1         1 UA4       0.063700
     38 H222         0.8780    -2.9200    -5.0870 h1         1 UA4       0.063700
     39 H241         0.4820    -2.0810    -7.4550 h1         1 UA4       0.020700
     40 H242        -0.0260    -3.7120    -7.8940 h1         1 UA4       0.020700
     41 H261        -1.6610    -1.6170   -10.3080 h1         1 UA4       0.029367
     42 H262        -0.5290    -2.9710   -10.1460 h1         1 UA4       0.029367
     43 H263        -0.0130    -1.3310    -9.7190 h1         1 UA4       0.029367
     44 H28         -3.6410    -4.3790    -4.2950 ha         1 UA4       0.166000
     45 H32         -3.0970    -3.9180    -0.0360 ha         1 UA4       0.166000
     46 H30         -6.5650    -2.3030    -1.9620 ha         1 UA4       0.170000
     47 H351        -2.5160    -6.5020    -0.8210 hc         1 UA4       0.061367
     48 H352        -2.8450    -6.9120    -2.5010 hc         1 UA4       0.061367
     49 H353        -1.1940    -7.0280    -1.8770 hc         1 UA4       0.061367
     50 H231        -1.8910    -3.5720    -6.2270 hc         1 UA4       0.063700
     51 H232        -1.3580    -1.9590    -5.7710 hc         1 UA4       0.063700
     52 H16          0.0650    -1.1320    -4.1360 ha         1 UA4       0.147000
     53 H12          0.0430    -0.2750     0.0430 ha         1 UA4       0.143000
     54 H91         -2.2230     0.5730    -2.3580 hc         1 UA4       0.059700
     55 H92         -2.5670     2.2760    -2.6120 hc         1 UA4       0.059700
     56 HN71         3.6600     0.8880    -1.7520 hn         1 UA4       0.438300
     57 HN72         2.5600    -0.4110    -1.5550 hn         1 UA4       0.438300
     58 HN81         0.7570     5.2410    -3.7110 hn         1 UA4       0.433300
     59 HN82         2.3920     4.8940    -3.3610 hn         1 UA4       0.433300
     60 C22         -0.0090    -3.5450    -5.1850 c3         1 UA4       0.099000
     61 F34         -5.2930    -2.6300     0.2800 f          1 UA4      -0.134400
     62 C23         -1.0130    -2.9250    -6.1490 c3         1 UA4      -0.104400
@<TRIPOS>BOND
     1     1    30 ar  
     2     1    31 ar  
     3     1    32 1   
     4     2    27 1   
     5     2    33 1   
     6     2    34 1   
     7     2    35 1   
     8     3    21 ar  
     9     3    23 ar  
    10     3    36 1   
    11     4    18 1   
    12     4    20 ar  
    13     4    21 ar  
    14     5    19 1   
    15     5    39 1   
    16     5    40 1   
    17     5    62 1   
    18     6    19 1   
    19     6    41 1   
    20     6    42 1   
    21     6    43 1   
    22     7    11 ar  
    23     7    13 ar  
    24     7    44 1   
    25     8     9 ar  
    26     8    10 ar  
    27     8    61 1   
    28     9    13 ar  
    29     9    45 1   
    30    10    11 ar  
    31    10    46 1   
    32    11    12 1   
    33    13    14 1   
    34    14    15 1   
    35    14    16 1   
    36    14    22 1   
    37    15    47 1   
    38    15    48 1   
    39    15    49 1   
    40    16    17 2   
    41    16    18 1   
    42    18    60 1   
    43    20    24 ar  
    44    20    52 1   
    45    21    22 1   
    46    23    24 ar  
    47    23    53 1   
    48    24    25 1   
    49    25    26 ar  
    50    25    28 ar  
    51    26    27 1   
    52    26    31 ar  
    53    27    54 1   
    54    27    55 1   
    55    28    29 1   
    56    28    30 ar  
    57    29    56 1   
    58    29    57 1   
    59    32    58 1   
    60    32    59 1   
    61    37    60 1   
    62    38    60 1   
    63    50    62 1   
    64    51    62 1   
    65    60    62 1   
@<TRIPOS>SUBSTRUCTURE
     1 UA4         1 TEMP              0 ****  ****    0 ROOT
