@<TRIPOS>MOLECULE
UA4
   62    65     1     0     0
SMALL
No Charge or Current Charge


@<TRIPOS>ATOM
      1 C5           1.2020     3.4110    -2.9090 ca         1 UA4       0.413900
      2 C10         -1.9120     1.1530    -4.9660 c3         1 UA4      -0.082100
      3 C13         -0.2920    -2.2930    -0.4030 ca         1 UA4      -0.103000
      4 C15         -0.3320    -2.8420    -2.7910 ca         1 UA4      -0.074000
      5 C24         -0.6110    -2.5990    -7.5200 c3         1 UA4       0.161600
      6 C26         -1.2960    -1.6000    -9.6100 c3         1 UA4       0.146900
      7 C28         -4.0340    -4.3850    -3.3040 ca         1 UA4      -0.152000
      8 C31         -4.9690    -3.0250    -1.0420 ca         1 UA4       0.198500
      9 C32         -3.7350    -3.6920    -0.9960 ca         1 UA4      -0.152000
     10 C30         -5.7370    -3.0290    -2.2120 ca         1 UA4      -0.191000
     11 C29         -5.2660    -3.7140    -3.3380 ca         1 UA4       0.198500
     12 F33         -6.0070    -3.7320    -4.4670 f          1 UA4      -0.169500
     13 C27         -3.2400    -4.3710    -2.1330 ca         1 UA4      -0.063300
     14 C18         -1.8730    -5.1040    -2.0860 c6         1 UA4       0.156300
     15 C35         -2.0750    -6.5640    -1.5940 c3         1 UA4      -0.072100
     16 C19         -1.1790    -5.0620    -3.4830 c          1 UA4       0.548000
     17 O21         -1.0860    -6.0480    -4.2110 o          1 UA4      -0.526000
     18 N20         -0.6410    -3.8020    -3.8310 n          1 UA4      -0.206400
     19 O25         -1.6670    -1.9890    -8.2770 os         1 UA4      -0.451000
     20 C16         -0.0140    -1.4950    -3.0800 ca         1 UA4      -0.112000
     21 C14         -0.5400    -3.2070    -1.4380 ca         1 UA4       0.074100
     22 O17         -1.0100    -4.4620    -1.1170 os         1 UA4      -0.329100
     23 C12          0.0880    -0.9770    -0.7060 ca         1 UA4      -0.111000
     24 C11          0.2120    -0.5540    -2.0480 cp         1 UA4       0.001000
     25 C2           0.5570     0.8620    -2.3710 cp         1 UA4      -0.286000
     26 C1          -0.3530     1.7410    -3.0210 ca         1 UA4       0.212300
     27 C9          -1.7670     1.3400    -3.4410 c3         1 UA4      -0.136700
     28 C3           1.8100     1.4220    -2.0390 ca         1 UA4       0.430900
     29 N7           2.7860     0.7020    -1.4360 nv         1 UA4      -1.073900
     30 N4           2.1420     2.6870    -2.3020 nb         1 UA4      -0.333000
     31 N6          -0.0210     3.0210    -3.2850 nb         1 UA4      -0.287000
     32 N8           1.5280     4.6940    -3.1800 nv         1 UA4      -1.053900
     33 H101        -1.7310     2.0980    -5.4920 hc         1 UA4       0.037700
     34 H102        -2.9240     0.8110    -5.2160 hc         1 UA4       0.037700
     35 H103        -1.1970     0.4120    -5.3410 hc         1 UA4       0.037700
     36 H13         -0.4310    -2.5960     0.6320 ha         1 UA4       0.131000
     37 H221         0.1870    -4.5540    -5.6440 h1         1 UA4       0.063700
     38 H222         0.7750    -2.9720    -5.1660 h1         1 UA4       0.063700
     39 H241         0.2390    -1.9100    -7.4150 h1         1 UA4       0.020700
     40 H242        -0.2590    -3.5160    -8.0110 h1         1 UA4       0.020700
     41 H261        -2.1510    -1.1440   -10.1250 h1         1 UA4       0.029367
     42 H262        -0.9690    -2.4700   -10.1940 h1         1 UA4       0.029367
     43 H263        -0.4790    -0.8670    -9.5890 h1         1 UA4       0.029367
     44 H28         -3.7110    -4.9150    -4.1960 ha         1 UA4       0.148000
     45 H32         -3.1680    -3.6750    -0.0690 ha         1 UA4       0.148000
     46 H30         -6.6910    -2.5120    -2.2440 ha         1 UA4       0.152000
     47 H351        -2.5240    -6.5830    -0.5930 hc         1 UA4       0.061367
     48 H352        -2.7410    -7.1200    -2.2640 hc         1 UA4       0.061367
     49 H353        -1.1220    -7.1030    -1.5440 hc         1 UA4       0.061367
     50 H231        -2.0280    -3.6150    -6.2410 hc         1 UA4       0.063700
     51 H232        -1.5480    -2.0210    -5.6610 hc         1 UA4       0.063700
     52 H16          0.0800    -1.1550    -4.1050 ha         1 UA4       0.129000
     53 H12          0.2510    -0.2660     0.1010 ha         1 UA4       0.125000
     54 H91         -2.0790     0.4170    -2.9390 hc         1 UA4       0.059700
     55 H92         -2.4800     2.1060    -3.1130 hc         1 UA4       0.059700
     56 HN71         3.5660     1.2010    -1.0180 hn         1 UA4       0.493500
     57 HN72         2.5450    -0.2030    -1.0430 hn         1 UA4       0.493500
     58 HN81         0.9450     5.2100    -3.8340 hn         1 UA4       0.488500
     59 HN82         2.5060     4.9660    -3.1230 hn         1 UA4       0.488500
     60 C22         -0.1260    -3.5970    -5.2080 c3         1 UA4       0.099000
     61 F34         -5.4200    -2.3750     0.0520 f          1 UA4      -0.169500
     62 C23         -1.1730    -2.9380    -6.1300 c3         1 UA4      -0.104400
@<TRIPOS>BOND
     1     1    30 ar  
     2     1    31 ar  
     3     1    32 1   
     4     2    27 1   
     5     2    33 1   
     6     2    34 1   
     7     2    35 1   
     8     3    21 ar  
     9     3    23 ar  
    10     3    36 1   
    11     4    18 1   
    12     4    20 ar  
    13     4    21 ar  
    14     5    19 1   
    15     5    39 1   
    16     5    40 1   
    17     5    62 1   
    18     6    19 1   
    19     6    41 1   
    20     6    42 1   
    21     6    43 1   
    22     7    11 ar  
    23     7    13 ar  
    24     7    44 1   
    25     8     9 ar  
    26     8    10 ar  
    27     8    61 1   
    28     9    13 ar  
    29     9    45 1   
    30    10    11 ar  
    31    10    46 1   
    32    11    12 1   
    33    13    14 1   
    34    14    15 1   
    35    14    16 1   
    36    14    22 1   
    37    15    47 1   
    38    15    48 1   
    39    15    49 1   
    40    16    17 2   
    41    16    18 1   
    42    18    60 1   
    43    20    24 ar  
    44    20    52 1   
    45    21    22 1   
    46    23    24 ar  
    47    23    53 1   
    48    24    25 1   
    49    25    26 ar  
    50    25    28 ar  
    51    26    27 1   
    52    26    31 ar  
    53    27    54 1   
    54    27    55 1   
    55    28    29 1   
    56    28    30 ar  
    57    29    56 1   
    58    29    57 1   
    59    32    58 1   
    60    32    59 1   
    61    37    60 1   
    62    38    60 1   
    63    50    62 1   
    64    51    62 1   
    65    60    62 1   
@<TRIPOS>SUBSTRUCTURE
     1 UA4         1 TEMP              0 ****  ****    0 ROOT
