@<TRIPOS>MOLECULE
UA6
   48    50     1     0     0
SMALL
No Charge or Current Charge


@<TRIPOS>ATOM
      1 C14         26.9340     4.7170    66.8520 ca         1 UA6      -0.106000
      2 C10         20.6180     5.0390    72.5090 ca         1 UA6       0.274900
      3 C13         25.6040     4.3060    66.6160 ca         1 UA6      -0.067000
      4 C02         24.5520     2.0830    65.9980 c          1 UA6       0.621100
      5 C04         25.3890     2.4780    68.3100 c3         1 UA6       0.185100
      6 C05         24.3660     3.0030    69.2270 c1         1 UA6      -0.101100
      7 C06         23.5190     3.4790    69.9570 cg         1 UA6      -0.219000
      8 C07         22.5190     4.0610    70.8060 ca         1 UA6       0.416000
      9 C08         22.0360     5.3650    70.5810 ca         1 UA6      -0.099000
     10 C09         21.0560     5.8690    71.4600 ca         1 UA6      -0.117000
     11 C15         27.3760     5.9850    66.4360 ca         1 UA6      -0.103500
     12 C16         26.5060     6.8420    65.7430 ca         1 UA6      -0.104000
     13 C17         25.2010     6.4190    65.4470 ca         1 UA6      -0.103500
     14 C18         24.7610     5.1500    65.8620 ca         1 UA6      -0.106000
     15 C19         24.7030     2.3310    64.4850 c3         1 UA6      -0.127100
     16 C20         25.1900     1.0850    63.7360 ca         1 UA6       0.016700
     17 C21         24.2090     0.2240    63.2090 ca         1 UA6      -0.104000
     18 C22         24.5590    -0.9330    62.5010 ca         1 UA6      -0.027000
     19 C23         25.9140    -1.2590    62.3070 ca         1 UA6      -0.197300
     20 C24         26.3260    -2.5130    61.5290 c3         1 UA6       0.347300
     21 C28         26.9040    -0.4000    62.8250 ca         1 UA6      -0.017000
     22 C29         26.5670     0.7730    63.5450 ca         1 UA6      -0.186300
     23 C30         27.6980     1.6670    64.0950 c3         1 UA6       0.345300
     24 F25         25.3150    -3.4000    61.3850 f          1 UA6      -0.109667
     25 F26         27.3350    -3.1750    62.1390 f          1 UA6      -0.109667
     26 F27         26.7540    -2.2000    60.2850 f          1 UA6      -0.109667
     27 F31         27.6870     2.8990    63.5370 f          1 UA6      -0.110667
     28 F32         28.9330     1.1640    63.8670 f          1 UA6      -0.110667
     29 F33         27.6050     1.8300    65.4320 f          1 UA6      -0.110667
     30 N03         25.2060     2.9500    66.9150 n          1 UA6      -0.244400
     31 N11         21.1180     3.7890    72.6800 nb         1 UA6      -0.311000
     32 N12         22.0590     3.3050    71.8360 nb         1 UA6      -0.301000
     33 O01         23.8950     1.1240    66.3920 o          1 UA6      -0.586100
     34 H1          27.6370     4.0540    67.3510 ha         1 UA6       0.129000
     35 H3          25.3730     1.3810    68.3480 h1         1 UA6       0.086700
     36 H4          26.3740     2.7870    68.6780 h1         1 UA6       0.086700
     37 H5          22.4120     5.9600    69.7530 ha         1 UA6       0.138000
     38 H6          20.6460     6.8680    71.3360 ha         1 UA6       0.134000
     39 H7          28.3980     6.2980    66.6400 ha         1 UA6       0.120500
     40 H8          26.8490     7.8220    65.4190 ha         1 UA6       0.118000
     41 H9          24.5310     7.0710    64.8900 ha         1 UA6       0.120500
     42 H10         23.7480     4.8360    65.6170 ha         1 UA6       0.129000
     43 H11         25.3520     3.1840    64.2860 hc         1 UA6       0.085200
     44 H12         23.7150     2.6230    64.1130 hc         1 UA6       0.085200
     45 H13         23.1550     0.4520    63.3490 ha         1 UA6       0.132000
     46 H14         23.7690    -1.5690    62.1060 ha         1 UA6       0.139000
     47 H15         27.9480    -0.6590    62.6560 ha         1 UA6       0.146000
     48 H2          19.8640     5.3730    73.2200 h4         1 UA6       0.032100
@<TRIPOS>BOND
     1     1     3 ar  
     2     1    11 ar  
     3     1    34 1   
     4     2    10 ar  
     5     2    31 ar  
     6     2    48 1   
     7     3    14 ar  
     8     3    30 1   
     9     4    15 1   
    10     4    30 1   
    11     4    33 2   
    12     5     6 1   
    13     5    30 1   
    14     5    35 1   
    15     5    36 1   
    16     6     7 3   
    17     7     8 1   
    18     8     9 ar  
    19     8    32 ar  
    20     9    10 ar  
    21     9    37 1   
    22    10    38 1   
    23    11    12 ar  
    24    11    39 1   
    25    12    13 ar  
    26    12    40 1   
    27    13    14 ar  
    28    13    41 1   
    29    14    42 1   
    30    15    16 1   
    31    15    43 1   
    32    15    44 1   
    33    16    17 ar  
    34    16    22 ar  
    35    17    18 ar  
    36    17    45 1   
    37    18    19 ar  
    38    18    46 1   
    39    19    20 1   
    40    19    21 ar  
    41    20    24 1   
    42    20    25 1   
    43    20    26 1   
    44    21    22 ar  
    45    21    47 1   
    46    22    23 1   
    47    23    27 1   
    48    23    28 1   
    49    23    29 1   
    50    31    32 ar  
@<TRIPOS>SUBSTRUCTURE
     1 UA6         1 TEMP              0 ****  ****    0 ROOT
