@<TRIPOS>MOLECULE
UA6
   48    50     1     0     0
SMALL
abcg2


@<TRIPOS>ATOM
      1 C14         26.8220     4.7160    66.5980 ca         1 UA6      -0.106000
      2 C10         20.3130     5.7270    71.4660 ca         1 UA6       0.274900
      3 C13         25.5520     4.1490    66.6450 ca         1 UA6      -0.067000
      4 C02         25.1500     1.7500    66.2320 c          1 UA6       0.621100
      5 C04         25.4730     2.5440    68.5190 c3         1 UA6       0.185100
      6 C05         24.3660     3.1790    69.2260 c1         1 UA6      -0.101100
      7 C06         23.4530     3.7470    69.7660 cg         1 UA6      -0.219000
      8 C07         22.3890     4.4470    70.4050 ca         1 UA6       0.416000
      9 C08         22.6090     5.1750    71.5840 ca         1 UA6      -0.099000
     10 C09         21.5340     5.8340    72.1300 ca         1 UA6      -0.117000
     11 C15         26.9690     6.0420    66.2080 ca         1 UA6      -0.103500
     12 C16         25.8510     6.7980    65.8680 ca         1 UA6      -0.104000
     13 C17         24.5820     6.2280    65.9240 ca         1 UA6      -0.103500
     14 C18         24.4290     4.9040    66.3200 ca         1 UA6      -0.106000
     15 C19         25.0550     2.0980    64.7470 c3         1 UA6      -0.127100
     16 C20         25.3900     0.9300    63.8590 ca         1 UA6       0.016700
     17 C21         24.3700     0.0820    63.4410 ca         1 UA6      -0.104000
     18 C22         24.6200    -1.0120    62.6230 ca         1 UA6      -0.027000
     19 C23         25.9180    -1.2700    62.2070 ca         1 UA6      -0.197300
     20 C24         26.2340    -2.4220    61.2990 c3         1 UA6       0.347300
     21 C28         26.9580    -0.4410    62.6120 ca         1 UA6      -0.017000
     22 C29         26.6980     0.6470    63.4320 ca         1 UA6      -0.186300
     23 C30         27.8480     1.5300    63.8400 c3         1 UA6       0.345300
     24 F25         25.1620    -3.1940    61.0430 f          1 UA6      -0.109667
     25 F26         27.1880    -3.2300    61.8190 f          1 UA6      -0.109667
     26 F27         26.7100    -2.0030    60.1000 f          1 UA6      -0.109667
     27 F31         27.7380     2.7810    63.3270 f          1 UA6      -0.110667
     28 F32         29.0400     1.0560    63.4340 f          1 UA6      -0.110667
     29 F33         27.9270     1.6760    65.1840 f          1 UA6      -0.110667
     30 N03         25.4040     2.7890    67.0730 n          1 UA6      -0.244400
     31 N11         20.1540     5.0220    70.3500 nb         1 UA6      -0.311000
     32 N12         21.1840     4.3810    69.8160 nb         1 UA6      -0.301000
     33 O01         24.9860     0.6030    66.6320 o          1 UA6      -0.586100
     34 H1          27.6840     4.1140    66.8560 ha         1 UA6       0.129000
     35 H3          25.4580     1.4660    68.6710 h1         1 UA6       0.086700
     36 H4          26.4230     2.9260    68.9010 h1         1 UA6       0.086700
     37 H5          23.5940     5.2050    72.0300 ha         1 UA6       0.138000
     38 H6          21.6220     6.4170    73.0360 ha         1 UA6       0.134000
     39 H7          27.9570     6.4820    66.1640 ha         1 UA6       0.120500
     40 H8          25.9680     7.8290    65.5610 ha         1 UA6       0.118000
     41 H9          23.7100     6.8150    65.6640 ha         1 UA6       0.120500
     42 H10         23.4480     4.4510    66.3760 ha         1 UA6       0.129000
     43 H11         25.6670     2.9640    64.5180 hc         1 UA6       0.085200
     44 H12         24.0200     2.3960    64.5650 hc         1 UA6       0.085200
     45 H13         23.3560     0.2850    63.7600 ha         1 UA6       0.132000
     46 H14         23.8070    -1.6520    62.3120 ha         1 UA6       0.139000
     47 H15         27.9690    -0.6430    62.2860 ha         1 UA6       0.146000
     48 H2          19.4240     6.2210    71.8380 h4         1 UA6       0.032100
@<TRIPOS>BOND
     1     1     3 ar  
     2     1    11 ar  
     3     1    34 1   
     4     2    10 ar  
     5     2    31 ar  
     6     2    48 1   
     7     3    14 ar  
     8     3    30 1   
     9     4    15 1   
    10     4    30 1   
    11     4    33 2   
    12     5     6 1   
    13     5    30 1   
    14     5    35 1   
    15     5    36 1   
    16     6     7 3   
    17     7     8 1   
    18     8     9 ar  
    19     8    32 ar  
    20     9    10 ar  
    21     9    37 1   
    22    10    38 1   
    23    11    12 ar  
    24    11    39 1   
    25    12    13 ar  
    26    12    40 1   
    27    13    14 ar  
    28    13    41 1   
    29    14    42 1   
    30    15    16 1   
    31    15    43 1   
    32    15    44 1   
    33    16    17 ar  
    34    16    22 ar  
    35    17    18 ar  
    36    17    45 1   
    37    18    19 ar  
    38    18    46 1   
    39    19    20 1   
    40    19    21 ar  
    41    20    24 1   
    42    20    25 1   
    43    20    26 1   
    44    21    22 ar  
    45    21    47 1   
    46    22    23 1   
    47    23    27 1   
    48    23    28 1   
    49    23    29 1   
    50    31    32 ar  
@<TRIPOS>SUBSTRUCTURE
     1 UA6         1 TEMP              0 ****  ****    0 ROOT
