@<TRIPOS>MOLECULE
UA7
   58    63     1     0     0
SMALL
bcc


@<TRIPOS>ATOM
      1 C01         26.2110   -11.9250    55.0820 c6         1 UA7      -0.063400
      2 C02         27.1430   -13.0280    54.5870 c6         1 UA7      -0.014400
      3 C03         28.4090   -12.3890    54.0180 c6         1 UA7      -0.026100
      4 C04         28.1100   -11.3280    52.9930 ca         1 UA7      -0.060300
      5 C05         29.0830   -10.9990    52.0490 ca         1 UA7      -0.127000
      6 C06         28.8590   -10.0270    51.0890 ca         1 UA7      -0.126000
      7 C07         27.6330    -9.3730    51.0550 ca         1 UA7      -0.129000
      8 C08         26.6600    -9.6970    51.9860 ca         1 UA7      -0.123000
      9 C09         26.8860   -10.6610    52.9680 ca         1 UA7      -0.058300
     10 C10         25.7670   -11.0170    53.9300 c6         1 UA7       0.057800
     11 C11         25.0570    -9.7930    54.4510 cc         1 UA7      -0.279400
     12 C12         23.7100    -9.6230    54.3540 cd         1 UA7       0.232900
     13 C13         23.0760    -8.4260    54.8690 ca         1 UA7      -0.200800
     14 C14         21.7020    -8.1620    54.7980 ca         1 UA7      -0.083000
     15 C15         21.1860    -6.9880    55.3060 ca         1 UA7      -0.153000
     16 C16         22.0340    -6.0530    55.8970 ca         1 UA7      -0.075000
     17 C17         23.3920    -6.2900    55.9790 ca         1 UA7      -0.148000
     18 C18         23.9020    -7.4750    55.4640 ca         1 UA7       0.193100
     19 C20         25.8590    -8.7870    55.1020 c          1 UA7       0.761800
     20 C23         27.4630   -14.0220    55.6720 ca         1 UA7      -0.067300
     21 C24         28.0830   -13.6260    56.8570 ca         1 UA7      -0.125000
     22 C25         28.3750   -14.5430    57.8530 ca         1 UA7      -0.115000
     23 C26         28.0570   -15.8940    57.7020 cp         1 UA7      -0.044000
     24 C27         27.4360   -16.2910    56.5190 ca         1 UA7      -0.115000
     25 C28         27.1480   -15.3690    55.5230 ca         1 UA7      -0.125000
     26 C29         28.3690   -16.8690    58.7630 cp         1 UA7      -0.016000
     27 C30         27.4980   -17.9200    59.0530 ca         1 UA7      -0.120000
     28 C31         27.7840   -18.8400    60.0490 ca         1 UA7      -0.102500
     29 C32         28.9610   -18.7120    60.7710 ca         1 UA7      -0.018900
     30 C33         29.8480   -17.6790    60.5070 ca         1 UA7      -0.102500
     31 C34         29.5460   -16.7680    59.5070 ca         1 UA7      -0.120000
     32 O19         25.2310    -7.6700    55.5660 os         1 UA7      -0.338200
     33 O21         27.0520    -8.8390    55.2760 o          1 UA7      -0.548500
     34 O22         22.9860   -10.5710    53.7720 oh         1 UA7      -0.477100
     35 BR3         29.3610   -19.9580    62.1310 br         1 UA7      -0.100100
     36 H012        26.7220   -11.3410    55.8510 hc         1 UA7       0.052700
     37 H011        25.3230   -12.3570    55.5470 hc         1 UA7       0.052700
     38 H021        26.6390   -13.5680    53.7770 hc         1 UA7       0.054700
     39 H032        29.0510   -13.1550    53.5760 hc         1 UA7       0.054200
     40 H031        28.9870   -11.9460    54.8370 hc         1 UA7       0.054200
     41 H051        30.0330   -11.5220    52.0720 ha         1 UA7       0.126000
     42 H061        29.6300    -9.7860    50.3680 ha         1 UA7       0.129000
     43 H071        27.4360    -8.6190    50.3050 ha         1 UA7       0.127000
     44 H081        25.7040    -9.1860    51.9520 ha         1 UA7       0.125000
     45 H101        25.0440   -11.5910    53.3420 hc         1 UA7       0.068700
     46 H141        21.0140    -8.8660    54.3470 ha         1 UA7       0.127000
     47 H151        20.1230    -6.7970    55.2450 ha         1 UA7       0.142000
     48 H161        21.6300    -5.1320    56.2960 ha         1 UA7       0.143000
     49 H171        24.0580    -5.5700    56.4350 ha         1 UA7       0.161000
     50 H241        28.3360   -12.5850    57.0180 ha         1 UA7       0.134500
     51 H251        28.8390   -14.1960    58.7680 ha         1 UA7       0.132500
     52 H271        27.1940   -17.3340    56.3580 ha         1 UA7       0.132500
     53 H281        26.6730   -15.7080    54.6100 ha         1 UA7       0.134500
     54 H301        26.5670   -18.0160    58.5090 ha         1 UA7       0.137500
     55 H311        27.0830   -19.6390    60.2570 ha         1 UA7       0.147000
     56 H331        30.7720   -17.5800    61.0600 ha         1 UA7       0.147000
     57 H341        30.2550   -15.9780    59.2960 ha         1 UA7       0.137500
     58 H221        22.0470   -10.3550    53.7340 ho         1 UA7       0.440000
@<TRIPOS>BOND
     1     1     2 1   
     2     1    10 1   
     3     1    36 1   
     4     1    37 1   
     5     2     3 1   
     6     2    20 1   
     7     2    38 1   
     8     3     4 1   
     9     3    39 1   
    10     3    40 1   
    11     4     5 ar  
    12     4     9 ar  
    13     5     6 ar  
    14     5    41 1   
    15     6     7 ar  
    16     6    42 1   
    17     7     8 ar  
    18     7    43 1   
    19     8     9 ar  
    20     8    44 1   
    21     9    10 1   
    22    10    11 1   
    23    10    45 1   
    24    11    12 2   
    25    11    19 1   
    26    12    13 1   
    27    12    34 1   
    28    13    14 ar  
    29    13    18 ar  
    30    14    15 ar  
    31    14    46 1   
    32    15    16 ar  
    33    15    47 1   
    34    16    17 ar  
    35    16    48 1   
    36    17    18 ar  
    37    17    49 1   
    38    18    32 1   
    39    19    32 1   
    40    19    33 2   
    41    20    21 ar  
    42    20    25 ar  
    43    21    22 ar  
    44    21    50 1   
    45    22    23 ar  
    46    22    51 1   
    47    23    24 ar  
    48    23    26 1   
    49    24    25 ar  
    50    24    52 1   
    51    25    53 1   
    52    26    27 ar  
    53    26    31 ar  
    54    27    28 ar  
    55    27    54 1   
    56    28    29 ar  
    57    28    55 1   
    58    29    30 ar  
    59    29    35 1   
    60    30    31 ar  
    61    30    56 1   
    62    31    57 1   
    63    34    58 1   
@<TRIPOS>SUBSTRUCTURE
     1 UA7         1 TEMP              0 ****  ****    0 ROOT
