@<TRIPOS>MOLECULE
UA7
   58    63     1     0     0
SMALL
No Charge or Current Charge


@<TRIPOS>ATOM
      1 C01         26.2210   -11.9010    55.0630 c6         1 UA7      -0.063400
      2 C02         27.1530   -13.0320    54.5730 c6         1 UA7      -0.014400
      3 C03         28.4330   -12.4110    53.9630 c6         1 UA7      -0.026100
      4 C04         28.1390   -11.3250    52.9230 ca         1 UA7      -0.060300
      5 C05         29.1390   -10.9860    51.9910 ca         1 UA7      -0.109000
      6 C06         28.9030   -10.0030    51.0170 ca         1 UA7      -0.108000
      7 C07         27.6610    -9.3530    50.9660 ca         1 UA7      -0.111000
      8 C08         26.6590    -9.6800    51.8940 ca         1 UA7      -0.105000
      9 C09         26.8900   -10.6540    52.8890 ca         1 UA7      -0.058300
     10 C10         25.7640   -10.9960    53.8860 c6         1 UA7       0.057800
     11 C11         25.0480    -9.7580    54.4340 cc         1 UA7      -0.279400
     12 C12         23.6840    -9.5840    54.3480 cd         1 UA7       0.232900
     13 C13         23.0450    -8.3740    54.8750 ca         1 UA7      -0.200800
     14 C14         21.6490    -8.1370    54.8150 ca         1 UA7      -0.065000
     15 C15         21.1090    -6.9490    55.3410 ca         1 UA7      -0.135000
     16 C16         21.9470    -5.9890    55.9290 ca         1 UA7      -0.057000
     17 C17         23.3300    -6.2190    55.9900 ca         1 UA7      -0.130000
     18 C18         23.8700    -7.4040    55.4650 ca         1 UA7       0.193100
     19 C20         25.8820    -8.7010    55.0730 c          1 UA7       0.686300
     20 C23         27.4790   -14.0410    55.6860 ca         1 UA7      -0.067300
     21 C24         28.1020   -13.6300    56.8810 ca         1 UA7      -0.107000
     22 C25         28.3950   -14.5630    57.8900 ca         1 UA7      -0.097000
     23 C26         28.0750   -15.9350    57.7370 cp         1 UA7      -0.044000
     24 C27         27.4490   -16.3330    56.5300 ca         1 UA7      -0.097000
     25 C28         27.1560   -15.4010    55.5190 ca         1 UA7      -0.107000
     26 C29         28.3870   -16.9290    58.8140 cp         1 UA7      -0.016000
     27 C30         27.5280   -18.0290    59.0670 ca         1 UA7      -0.102000
     28 C31         27.8190   -18.9620    60.0780 ca         1 UA7      -0.084500
     29 C32         28.9790   -18.8130    60.8550 ca         1 UA7      -0.018900
     30 C33         29.8460   -17.7340    60.6240 ca         1 UA7      -0.084500
     31 C34         29.5520   -16.8020    59.6140 ca         1 UA7      -0.102000
     32 O19         25.2220    -7.5970    55.5420 os         1 UA7      -0.338200
     33 O21         27.0960    -8.7790    55.1970 o          1 UA7      -0.473000
     34 O22         22.8910   -10.5190    53.7860 oh         1 UA7      -0.516100
     35 Br3         29.3770   -20.0820    62.2290 br         1 UA7      -0.100100
     36 H012        26.7370   -11.3070    55.8270 hc         1 UA7       0.052700
     37 H011        25.3380   -12.3310    55.5550 hc         1 UA7       0.052700
     38 H021        26.6300   -13.5650    53.7670 hc         1 UA7       0.054700
     39 H032        29.0380   -13.2080    53.5090 hc         1 UA7       0.054200
     40 H031        29.0530   -11.9730    54.7570 hc         1 UA7       0.054200
     41 H051        30.1030   -11.4900    52.0190 ha         1 UA7       0.108000
     42 H061        29.6800    -9.7500    50.2990 ha         1 UA7       0.111000
     43 H071        27.4730    -8.5960    50.2070 ha         1 UA7       0.109000
     44 H081        25.6990    -9.1730    51.8390 ha         1 UA7       0.107000
     45 H101        25.0620   -11.6050    53.3010 hc         1 UA7       0.068700
     46 H141        20.9660    -8.8540    54.3680 ha         1 UA7       0.109000
     47 H151        20.0370    -6.7740    55.2920 ha         1 UA7       0.124000
     48 H161        21.5270    -5.0710    56.3350 ha         1 UA7       0.125000
     49 H171        23.9860    -5.4810    56.4430 ha         1 UA7       0.143000
     50 H241        28.3610   -12.5850    57.0340 ha         1 UA7       0.116500
     51 H251        28.8640   -14.2130    58.8060 ha         1 UA7       0.114500
     52 H271        27.1990   -17.3780    56.3670 ha         1 UA7       0.114500
     53 H281        26.6780   -15.7430    54.6040 ha         1 UA7       0.116500
     54 H301        26.6180   -18.1540    58.4850 ha         1 UA7       0.119500
     55 H311        27.1450   -19.7970    60.2580 ha         1 UA7       0.129000
     56 H331        30.7460   -17.6200    61.2240 ha         1 UA7       0.129000
     57 H341        30.2420   -15.9800    59.4410 ha         1 UA7       0.119500
     58 H221        21.9760   -10.1830    53.8440 ho         1 UA7       0.479000
@<TRIPOS>BOND
     1     1     2 1   
     2     1    10 1   
     3     1    36 1   
     4     1    37 1   
     5     2     3 1   
     6     2    20 1   
     7     2    38 1   
     8     3     4 1   
     9     3    39 1   
    10     3    40 1   
    11     4     5 ar  
    12     4     9 ar  
    13     5     6 ar  
    14     5    41 1   
    15     6     7 ar  
    16     6    42 1   
    17     7     8 ar  
    18     7    43 1   
    19     8     9 ar  
    20     8    44 1   
    21     9    10 1   
    22    10    11 1   
    23    10    45 1   
    24    11    12 2   
    25    11    19 1   
    26    12    13 1   
    27    12    34 1   
    28    13    14 ar  
    29    13    18 ar  
    30    14    15 ar  
    31    14    46 1   
    32    15    16 ar  
    33    15    47 1   
    34    16    17 ar  
    35    16    48 1   
    36    17    18 ar  
    37    17    49 1   
    38    18    32 1   
    39    19    32 1   
    40    19    33 2   
    41    20    21 ar  
    42    20    25 ar  
    43    21    22 ar  
    44    21    50 1   
    45    22    23 ar  
    46    22    51 1   
    47    23    24 ar  
    48    23    26 1   
    49    24    25 ar  
    50    24    52 1   
    51    25    53 1   
    52    26    27 ar  
    53    26    31 ar  
    54    27    28 ar  
    55    27    54 1   
    56    28    29 ar  
    57    28    55 1   
    58    29    30 ar  
    59    29    35 1   
    60    30    31 ar  
    61    30    56 1   
    62    31    57 1   
    63    34    58 1   
@<TRIPOS>SUBSTRUCTURE
     1 UA7         1 TEMP              0 ****  ****    0 ROOT
