@<TRIPOS>MOLECULE
UA8
   43    44     1     0     0
SMALL
No Charge or Current Charge


@<TRIPOS>ATOM
      1 C4         -10.4910   -26.4990     2.2790 c6         1 UA8       0.100500
      2 C14        -10.1100   -28.4620     4.4540 c6         1 UA8      -0.084400
      3 C5         -12.7560   -27.4460     1.8010 c          1 UA8       0.653100
      4 C6         -15.1010   -28.3460     1.6050 c3         1 UA8       0.125700
      5 C11        -16.4500   -30.0600     3.0750 c3         1 UA8      -0.067400
      6 C7         -15.0320   -29.3730     0.4460 c3         1 UA8      -0.090900
      7 C8         -16.3860   -29.9000    -0.0830 c3         1 UA8      -0.067400
      8 C9         -16.9340   -31.1040     0.7200 c3         1 UA8      -0.072400
      9 C10        -17.4460   -30.7910     2.1430 c3         1 UA8      -0.072400
     10 C12        -16.1980   -28.5880     2.6730 c3         1 UA8      -0.090900
     11 C13        -11.5240   -28.1680     3.9000 c6         1 UA8       0.100500
     12 N1         -11.5670   -27.4990     2.5590 n          1 UA8      -0.415800
     13 N2         -13.7910   -28.2310     2.2480 ns         1 UA8      -0.523900
     14 C3          -9.0980   -26.8360     2.8580 c6         1 UA8      -0.084400
     15 C1          -7.7760   -27.5300     4.9370 c3         1 UA8      -0.085100
     16 C2          -9.1790   -27.2400     4.3430 c6         1 UA8      -0.062700
     17 O1         -12.8650   -26.7450     0.8060 o          1 UA8      -0.648100
     18 H1         -10.8150   -25.5320     2.6890 h1         1 UA8       0.043450
     19 H2         -10.3860   -26.3670     1.1930 h1         1 UA8       0.043450
     20 H3          -9.6770   -29.3080     3.9030 hc         1 UA8       0.048700
     21 H4         -10.1910   -28.7850     5.5010 hc         1 UA8       0.048700
     22 H5         -15.3320   -27.3680     1.1570 h1         1 UA8       0.080700
     23 H6         -16.8740   -30.0670     4.0870 hc         1 UA8       0.037950
     24 H7         -15.5040   -30.6120     3.1330 hc         1 UA8       0.037950
     25 H8         -14.4160   -30.2280     0.7510 hc         1 UA8       0.046950
     26 H9         -14.4940   -28.9030    -0.3860 hc         1 UA8       0.046950
     27 H10        -16.2400   -30.2300    -1.1190 hc         1 UA8       0.037950
     28 H11        -17.1270   -29.0920    -0.1180 hc         1 UA8       0.037950
     29 H12        -17.7610   -31.5500     0.1530 hc         1 UA8       0.035950
     30 H13        -16.1590   -31.8780     0.7810 hc         1 UA8       0.035950
     31 H14        -18.3680   -30.2010     2.0700 hc         1 UA8       0.035950
     32 H15        -17.7320   -31.7380     2.6180 hc         1 UA8       0.035950
     33 H16        -15.9430   -28.0130     3.5720 hc         1 UA8       0.046950
     34 H17        -17.1390   -28.1550     2.3130 hc         1 UA8       0.046950
     35 H18        -12.0550   -27.5240     4.6160 h1         1 UA8       0.043450
     36 H19        -12.0640   -29.1240     3.8600 h1         1 UA8       0.043450
     37 H20        -13.6170   -28.7820     3.0750 hn         1 UA8       0.304500
     38 H21         -8.6520   -27.6530     2.2740 hc         1 UA8       0.048700
     39 H22         -8.4340   -25.9690     2.7350 hc         1 UA8       0.048700
     40 H23         -7.8440   -27.8030     5.9970 hc         1 UA8       0.034033
     41 H24         -7.2800   -28.3550     4.4110 hc         1 UA8       0.034033
     42 H25         -7.1260   -26.6490     4.8650 hc         1 UA8       0.034033
     43 H26         -9.6030   -26.4070     4.9220 hc         1 UA8       0.045700
@<TRIPOS>BOND
     1     1    12 1   
     2     1    14 1   
     3     1    18 1   
     4     1    19 1   
     5     2    11 1   
     6     2    16 1   
     7     2    20 1   
     8     2    21 1   
     9     3    12 1   
    10     3    13 1   
    11     3    17 2   
    12     4     6 1   
    13     4    10 1   
    14     4    13 1   
    15     4    22 1   
    16     5     9 1   
    17     5    10 1   
    18     5    23 1   
    19     5    24 1   
    20     6     7 1   
    21     6    25 1   
    22     6    26 1   
    23     7     8 1   
    24     7    27 1   
    25     7    28 1   
    26     8     9 1   
    27     8    29 1   
    28     8    30 1   
    29     9    31 1   
    30     9    32 1   
    31    10    33 1   
    32    10    34 1   
    33    11    12 1   
    34    11    35 1   
    35    11    36 1   
    36    13    37 1   
    37    14    16 1   
    38    14    38 1   
    39    14    39 1   
    40    15    16 1   
    41    15    40 1   
    42    15    41 1   
    43    15    42 1   
    44    16    43 1   
@<TRIPOS>SUBSTRUCTURE
     1 UA8         1 TEMP              0 ****  ****    0 ROOT
