@<TRIPOS>MOLECULE
UA8
   43    44     1     0     0
SMALL
abcg2


@<TRIPOS>ATOM
      1 C4         -10.7250   -26.2790     2.6060 c6         1 UA8       0.100500
      2 C14        -10.1620   -28.4920     4.3600 c6         1 UA8      -0.084400
      3 C5         -12.7930   -27.3710     1.9700 c          1 UA8       0.653100
      4 C6         -15.0180   -28.3580     1.5470 c3         1 UA8       0.125700
      5 C11        -16.5810   -29.8330     3.0220 c3         1 UA8      -0.067400
      6 C7         -14.8050   -29.5680     0.6310 c3         1 UA8      -0.090900
      7 C8         -16.0680   -30.1270    -0.0270 c3         1 UA8      -0.067400
      8 C9         -16.7710   -31.1860     0.8220 c3         1 UA8      -0.072400
      9 C10        -17.4440   -30.6880     2.0970 c3         1 UA8      -0.072400
     10 C12        -16.2610   -28.4540     2.4400 c3         1 UA8      -0.090900
     11 C13        -11.5870   -28.0530     4.0440 c6         1 UA8       0.100500
     12 N1         -11.6640   -27.3830     2.7570 n          1 UA8      -0.415800
     13 N2         -13.8380   -28.1380     2.3690 ns         1 UA8      -0.523900
     14 C3          -9.2960   -26.7170     2.8780 c6         1 UA8      -0.084400
     15 C1          -7.7390   -27.8250     4.5280 c3         1 UA8      -0.085100
     16 C2          -9.1590   -27.3520     4.2560 c6         1 UA8      -0.062700
     17 O1         -12.8540   -26.6920     0.9460 o          1 UA8      -0.648100
     18 H1         -10.9910   -25.4710     3.3020 h1         1 UA8       0.043450
     19 H2         -10.8090   -25.8790     1.6010 h1         1 UA8       0.043450
     20 H3          -9.8730   -29.2890     3.6670 hc         1 UA8       0.048700
     21 H4         -10.1520   -28.9250     5.3640 hc         1 UA8       0.048700
     22 H5         -15.1390   -27.4710     0.9250 h1         1 UA8       0.080700
     23 H6         -17.1280   -29.6940     3.9580 hc         1 UA8       0.037950
     24 H7         -15.6650   -30.3700     3.2950 hc         1 UA8       0.037950
     25 H8         -14.3260   -30.3660     1.2060 hc         1 UA8       0.046950
     26 H9         -14.0810   -29.2770    -0.1350 hc         1 UA8       0.046950
     27 H10        -15.7880   -30.5920    -0.9750 hc         1 UA8       0.037950
     28 H11        -16.7590   -29.3190    -0.2870 hc         1 UA8       0.037950
     29 H12        -17.5270   -31.6890     0.2110 hc         1 UA8       0.035950
     30 H13        -16.0350   -31.9550     1.0800 hc         1 UA8       0.035950
     31 H14        -18.3320   -30.1040     1.8290 hc         1 UA8       0.035950
     32 H15        -17.8120   -31.5560     2.6510 hc         1 UA8       0.035950
     33 H16        -16.1450   -27.7210     3.2420 hc         1 UA8       0.046950
     34 H17        -17.1270   -28.1170     1.8640 hc         1 UA8       0.046950
     35 H18        -11.9610   -27.4000     4.8440 h1         1 UA8       0.043450
     36 H19        -12.2010   -28.9520     4.0510 h1         1 UA8       0.043450
     37 H20        -13.7600   -28.7260     3.1800 hn         1 UA8       0.304500
     38 H21         -8.9820   -27.4360     2.1140 hc         1 UA8       0.048700
     39 H22         -8.6400   -25.8470     2.7900 hc         1 UA8       0.048700
     40 H23         -7.6490   -28.2600     5.5240 hc         1 UA8       0.034033
     41 H24         -7.4380   -28.5860     3.8050 hc         1 UA8       0.034033
     42 H25         -7.0280   -27.0000     4.4570 hc         1 UA8       0.034033
     43 H26         -9.4240   -26.5940     5.0050 hc         1 UA8       0.045700
@<TRIPOS>BOND
     1     1    12 1   
     2     1    14 1   
     3     1    18 1   
     4     1    19 1   
     5     2    11 1   
     6     2    16 1   
     7     2    20 1   
     8     2    21 1   
     9     3    12 1   
    10     3    13 1   
    11     3    17 2   
    12     4     6 1   
    13     4    10 1   
    14     4    13 1   
    15     4    22 1   
    16     5     9 1   
    17     5    10 1   
    18     5    23 1   
    19     5    24 1   
    20     6     7 1   
    21     6    25 1   
    22     6    26 1   
    23     7     8 1   
    24     7    27 1   
    25     7    28 1   
    26     8     9 1   
    27     8    29 1   
    28     8    30 1   
    29     9    31 1   
    30     9    32 1   
    31    10    33 1   
    32    10    34 1   
    33    11    12 1   
    34    11    35 1   
    35    11    36 1   
    36    13    37 1   
    37    14    16 1   
    38    14    38 1   
    39    14    39 1   
    40    15    16 1   
    41    15    40 1   
    42    15    41 1   
    43    15    42 1   
    44    16    43 1   
@<TRIPOS>SUBSTRUCTURE
     1 UA8         1 TEMP              0 ****  ****    0 ROOT
