@<TRIPOS>MOLECULE
UAA
   17    17     1     0     0
SMALL
No Charge or Current Charge


@<TRIPOS>ATOM
      1 O2           1.8470    -1.7100     3.9980 o          1 UAA      -0.601000
      2 N3           3.3450    -0.2240     3.1850 ns         1 UAA      -0.472500
      3 C4           3.7640     0.7620     2.3500 c          1 UAA       0.600200
      4 C5           2.7540     1.1830     1.3840 cc         1 UAA      -0.448200
      5 C6           1.5120     0.6080     1.3530 cd         1 UAA       0.199400
      6 C7           0.3850     0.9690     0.4310 c3         1 UAA      -0.230200
      7 C8           0.0160    -0.2050    -0.4740 c          1 UAA       0.731000
      8 O8A         -0.7690    -1.0320    -0.0350 o          1 UAA      -0.709000
      9 O8B          0.6240    -0.3340    -1.5250 o          1 UAA      -0.709000
     10 O4           4.8830     1.2400     2.4170 o          1 UAA      -0.586000
     11 C2           2.1310    -0.8300     3.2090 c          1 UAA       0.616000
     12 N1           1.2540    -0.3720     2.2750 ns         1 UAA      -0.492600
     13 H3           4.0140    -0.5430     3.8670 hn         1 UAA       0.321500
     14 H5           3.0450     1.9710     0.7020 ha         1 UAA       0.212000
     15 H7C1         0.7290     1.8090    -0.1830 hc         1 UAA       0.051200
     16 H7C2        -0.4690     1.2290     1.0680 hc         1 UAA       0.051200
     17 H1           0.3540    -0.8370     2.2840 hn         1 UAA       0.466000
@<TRIPOS>BOND
     1     1    11 2   
     2     2     3 1   
     3     2    11 1   
     4     2    13 1   
     5     3     4 1   
     6     3    10 2   
     7     4     5 2   
     8     4    14 1   
     9     5     6 1   
    10     5    12 1   
    11     6     7 1   
    12     6    15 1   
    13     6    16 1   
    14     7     8 1   
    15     7     9 1   
    16    11    12 1   
    17    12    17 1   
@<TRIPOS>SUBSTRUCTURE
     1 UAA         1 TEMP              0 ****  ****    0 ROOT
