@<TRIPOS>MOLECULE
UAA
   17    17     1     0     0
SMALL
bcc


@<TRIPOS>ATOM
      1 O2           1.5800    -1.4770     4.2440 o          1 UAA      -0.676500
      2 N3           3.2510    -0.2620     3.2950 ns         1 UAA      -0.606500
      3 C4           3.7800     0.5880     2.3310 c          1 UAA       0.742700
      4 C5           2.8330     1.0110     1.3360 cc         1 UAA      -0.398200
      5 C6           1.5510     0.5830     1.3800 cd         1 UAA       0.199400
      6 C7           0.5190     0.9730     0.3850 c3         1 UAA      -0.230200
      7 C8           0.1310    -0.1740    -0.5960 c          1 UAA       0.941600
      8 O8A          0.6410    -1.2870    -0.3930 o          1 UAA      -0.814300
      9 O8B         -0.6640     0.1560    -1.4900 o          1 UAA      -0.814300
     10 O4           4.9560     0.9110     2.3840 o          1 UAA      -0.661500
     11 C2           1.9630    -0.7200     3.3730 c          1 UAA       0.825500
     12 N1           1.1450    -0.2460     2.3860 ns         1 UAA      -0.446100
     13 H3           3.8830    -0.5930     4.0130 hn         1 UAA       0.321500
     14 H5           3.1610     1.6750     0.5520 ha         1 UAA       0.162000
     15 H7C1         0.8800     1.8290    -0.1860 hc         1 UAA       0.051200
     16 H7C2        -0.3850     1.3040     0.9050 hc         1 UAA       0.051200
     17 H1           0.1950    -0.5870     2.3890 hn         1 UAA       0.352500
@<TRIPOS>BOND
     1     1    11 2   
     2     2     3 1   
     3     2    11 1   
     4     2    13 1   
     5     3     4 1   
     6     3    10 2   
     7     4     5 2   
     8     4    14 1   
     9     5     6 1   
    10     5    12 1   
    11     6     7 1   
    12     6    15 1   
    13     6    16 1   
    14     7     8 1   
    15     7     9 1   
    16    11    12 1   
    17    12    17 1   
@<TRIPOS>SUBSTRUCTURE
     1 UAA         1 TEMP              0 ****  ****    0 ROOT
