@<TRIPOS>MOLECULE
UAB
   46    47     1     0     0
SMALL
No Charge or Current Charge


@<TRIPOS>ATOM
      1 C4         -16.0340   -29.0640     2.8820 c6         1 UAB       0.091500
      2 C14         -5.1870   -27.7230     4.0040 ca         1 UAB      -0.109000
      3 C5         -14.2790   -28.2750     1.1740 c          1 UAB       0.638100
      4 C6         -11.9770   -27.8110     2.0550 c3         1 UAB       0.105000
      5 C11         -7.1320   -25.7880     4.6100 ca         1 UAB      -0.107000
      6 C7         -11.2210   -27.8830     3.3950 c3         1 UAB      -0.093400
      7 C8          -9.7370   -27.4740     3.2690 c3         1 UAB      -0.072400
      8 C9          -8.9720   -27.5440     4.6080 c3         1 UAB      -0.030100
      9 C10         -7.5130   -27.1350     4.4550 ca         1 UAB      -0.080300
     10 C12         -5.7860   -25.4100     4.4640 ca         1 UAB      -0.109000
     11 C13         -4.8130   -26.3780     4.1610 ca         1 UAB      -0.111000
     12 N1         -15.5880   -28.6790     1.5120 n          1 UAB      -0.396800
     13 N2         -13.3760   -28.2050     2.2060 ns         1 UAB      -0.511900
     14 C3         -16.5160   -30.5340     2.9100 c6         1 UAB      -0.106400
     15 C1         -18.0970   -32.2560     1.8490 c3         1 UAB      -0.086100
     16 C2         -17.6310   -30.7770     1.8580 c6         1 UAB      -0.060700
     17 O1         -13.9560   -27.9970     0.0290 o          1 UAB      -0.640100
     18 C15         -6.5330   -28.1000     4.1490 ca         1 UAB      -0.107000
     19 C16        -16.6480   -28.8560     0.4850 c6         1 UAB       0.091500
     20 C17        -17.1490   -30.3200     0.4550 c6         1 UAB      -0.106400
     21 H1         -15.2430   -28.9310     3.6310 h1         1 UAB       0.055450
     22 H2         -16.8640   -28.4070     3.1790 h1         1 UAB       0.055450
     23 H4         -11.4980   -28.4770     1.3250 h1         1 UAB       0.052200
     24 H5         -11.9380   -26.7850     1.6640 h1         1 UAB       0.052200
     25 H6          -7.8800   -25.0330     4.8420 ha         1 UAB       0.109500
     26 H7         -11.7160   -27.2280     4.1230 hc         1 UAB       0.041700
     27 H8         -11.2810   -28.9060     3.7870 hc         1 UAB       0.041700
     28 H9          -9.2420   -28.1270     2.5390 hc         1 UAB       0.046700
     29 H10         -9.6760   -26.4510     2.8750 hc         1 UAB       0.046700
     30 H11         -9.4690   -26.8960     5.3410 hc         1 UAB       0.045700
     31 H12         -9.0370   -28.5640     5.0070 hc         1 UAB       0.045700
     32 H13         -5.4980   -24.3680     4.5850 ha         1 UAB       0.111500
     33 H14         -3.7710   -26.0850     4.0480 ha         1 UAB       0.112000
     34 H15        -13.7120   -28.4490     3.1260 hn         1 UAB       0.302500
     35 H16        -16.8840   -30.7820     3.9150 hc         1 UAB       0.051200
     36 H17        -15.6630   -31.2000     2.7140 hc         1 UAB       0.051200
     37 H18        -18.4690   -32.5600     2.8350 hc         1 UAB       0.034700
     38 H19        -18.9090   -32.4110     1.1280 hc         1 UAB       0.034700
     39 H20        -17.2770   -32.9330     1.5780 hc         1 UAB       0.034700
     40 H21        -18.5100   -30.1780     2.1370 hc         1 UAB       0.042700
     41 H22         -6.8150   -29.1430     4.0230 ha         1 UAB       0.109500
     42 H23        -16.2820   -28.5770    -0.5130 h1         1 UAB       0.055450
     43 H24        -17.4870   -28.1860     0.7210 h1         1 UAB       0.055450
     44 H25        -17.9650   -30.4140    -0.2750 hc         1 UAB       0.051200
     45 H26        -16.3380   -30.9730     0.1060 hc         1 UAB       0.051200
     46 H3          -4.4350   -28.4720     3.7680 ha         1 UAB       0.111500
@<TRIPOS>BOND
     1     1    12 1   
     2     1    14 1   
     3     1    21 1   
     4     1    22 1   
     5     2    11 ar  
     6     2    18 ar  
     7     2    46 1   
     8     3    12 1   
     9     3    13 1   
    10     3    17 2   
    11     4     6 1   
    12     4    13 1   
    13     4    23 1   
    14     4    24 1   
    15     5     9 ar  
    16     5    10 ar  
    17     5    25 1   
    18     6     7 1   
    19     6    26 1   
    20     6    27 1   
    21     7     8 1   
    22     7    28 1   
    23     7    29 1   
    24     8     9 1   
    25     8    30 1   
    26     8    31 1   
    27     9    18 ar  
    28    10    11 ar  
    29    10    32 1   
    30    11    33 1   
    31    12    19 1   
    32    13    34 1   
    33    14    16 1   
    34    14    35 1   
    35    14    36 1   
    36    15    16 1   
    37    15    37 1   
    38    15    38 1   
    39    15    39 1   
    40    16    20 1   
    41    16    40 1   
    42    18    41 1   
    43    19    20 1   
    44    19    42 1   
    45    19    43 1   
    46    20    44 1   
    47    20    45 1   
@<TRIPOS>SUBSTRUCTURE
     1 UAB         1 TEMP              0 ****  ****    0 ROOT
