@<TRIPOS>MOLECULE
UAB
   46    47     1     0     0
SMALL
bcc


@<TRIPOS>ATOM
      1 C4         -16.2840   -28.6880     2.8330 c6         1 UAB       0.091500
      2 C14         -5.5270   -28.0940     3.7700 ca         1 UAB      -0.127000
      3 C5         -14.4400   -28.1410     1.2550 c          1 UAB       0.772100
      4 C6         -12.2320   -27.5520     2.1330 c3         1 UAB       0.105000
      5 C11         -7.2290   -26.0870     4.6310 ca         1 UAB      -0.125000
      6 C7         -11.4750   -27.7270     3.4400 c3         1 UAB      -0.093400
      7 C8          -9.9890   -27.4420     3.2810 c3         1 UAB      -0.072400
      8 C9          -9.2110   -27.6430     4.5820 c3         1 UAB      -0.030100
      9 C10         -7.7440   -27.3620     4.4100 ca         1 UAB      -0.080300
     10 C12         -5.8830   -25.8140     4.4270 ca         1 UAB      -0.127000
     11 C13         -5.0260   -26.8180     3.9940 ca         1 UAB      -0.129000
     12 N1         -15.7780   -28.3070     1.5220 n          1 UAB      -0.463800
     13 N2         -13.6350   -27.8570     2.3150 ns         1 UAB      -0.578900
     14 C3         -16.3160   -30.2040     2.9860 c6         1 UAB      -0.106400
     15 C1         -17.1220   -32.3690     1.9690 c3         1 UAB      -0.086100
     16 C2         -17.1490   -30.8510     1.8780 c6         1 UAB      -0.060700
     17 O1         -13.9880   -28.2350     0.1170 o          1 UAB      -0.640100
     18 C15         -6.8740   -28.3610     3.9760 ca         1 UAB      -0.125000
     19 C16        -16.6160   -28.8370     0.4570 c6         1 UAB       0.091500
     20 C17        -16.6760   -30.3600     0.5090 c6         1 UAB      -0.106400
     21 H1         -15.7150   -28.2280     3.6390 h1         1 UAB       0.055450
     22 H2         -17.2980   -28.2880     2.9240 h1         1 UAB       0.055450
     23 H4         -11.8210   -28.2290     1.3830 h1         1 UAB       0.052200
     24 H5         -12.0860   -26.5330     1.7540 h1         1 UAB       0.052200
     25 H6          -7.8910   -25.2970     4.9700 ha         1 UAB       0.127500
     26 H7         -11.8940   -27.0620     4.2030 hc         1 UAB       0.041700
     27 H8         -11.6190   -28.7490     3.8030 hc         1 UAB       0.041700
     28 H9          -9.5710   -28.0960     2.5090 hc         1 UAB       0.046700
     29 H10         -9.8430   -26.4160     2.9280 hc         1 UAB       0.046700
     30 H11         -9.6260   -26.9890     5.3540 hc         1 UAB       0.045700
     31 H12         -9.3540   -28.6690     4.9310 hc         1 UAB       0.045700
     32 H13         -5.5020   -24.8170     4.6080 ha         1 UAB       0.129500
     33 H14         -3.9760   -26.6090     3.8360 ha         1 UAB       0.130000
     34 H15        -14.0460   -27.5080     3.1650 hn         1 UAB       0.302500
     35 H16        -16.7250   -30.4640     3.9660 hc         1 UAB       0.051200
     36 H17        -15.2910   -30.5900     2.9550 hc         1 UAB       0.051200
     37 H18        -17.4900   -32.7160     2.9360 hc         1 UAB       0.034700
     38 H19        -17.7430   -32.8230     1.1940 hc         1 UAB       0.034700
     39 H20        -16.1050   -32.7470     1.8430 hc         1 UAB       0.034700
     40 H21        -18.1860   -30.5150     2.0090 hc         1 UAB       0.042700
     41 H22         -7.2570   -29.3600     3.8010 ha         1 UAB       0.127500
     42 H23        -16.2550   -28.4860    -0.5060 h1         1 UAB       0.055450
     43 H24        -17.6210   -28.4270     0.5940 h1         1 UAB       0.055450
     44 H25        -17.3460   -30.7270    -0.2730 hc         1 UAB       0.051200
     45 H26        -15.6830   -30.7700     0.2930 hc         1 UAB       0.051200
     46 H3          -4.8670   -28.8850     3.4350 ha         1 UAB       0.129500
@<TRIPOS>BOND
     1     1    12 1   
     2     1    14 1   
     3     1    21 1   
     4     1    22 1   
     5     2    11 ar  
     6     2    18 ar  
     7     2    46 1   
     8     3    12 1   
     9     3    13 1   
    10     3    17 2   
    11     4     6 1   
    12     4    13 1   
    13     4    23 1   
    14     4    24 1   
    15     5     9 ar  
    16     5    10 ar  
    17     5    25 1   
    18     6     7 1   
    19     6    26 1   
    20     6    27 1   
    21     7     8 1   
    22     7    28 1   
    23     7    29 1   
    24     8     9 1   
    25     8    30 1   
    26     8    31 1   
    27     9    18 ar  
    28    10    11 ar  
    29    10    32 1   
    30    11    33 1   
    31    12    19 1   
    32    13    34 1   
    33    14    16 1   
    34    14    35 1   
    35    14    36 1   
    36    15    16 1   
    37    15    37 1   
    38    15    38 1   
    39    15    39 1   
    40    16    20 1   
    41    16    40 1   
    42    18    41 1   
    43    19    20 1   
    44    19    42 1   
    45    19    43 1   
    46    20    44 1   
    47    20    45 1   
@<TRIPOS>SUBSTRUCTURE
     1 UAB         1 TEMP              0 ****  ****    0 ROOT
