@<TRIPOS>MOLECULE
UAD
   54    56     1     0     0
SMALL
bcc


@<TRIPOS>ATOM
      1 N1           2.9330    -0.6520     0.2480 n          1 UAD      -0.365000
      2 C2           2.7170    -1.9420     0.6940 c          1 UAD       0.865500
      3 O2           2.9040    -2.2930     1.8420 o          1 UAD      -0.682500
      4 N3           2.3140    -2.8210    -0.2720 ns         1 UAD      -0.578500
      5 C4           1.9410    -2.5390    -1.5750 c          1 UAD       0.760700
      6 O4           1.5180    -3.4220    -2.3000 o          1 UAD      -0.650500
      7 C5           2.1320    -1.1600    -1.9390 cc         1 UAD      -0.310200
      8 C6           2.5950    -0.2950    -1.0280 cd         1 UAD       0.050600
      9 PA           0.1620     2.5740    -0.9920 p5         1 UAD       1.475800
     10 PB          -0.9390    -0.1290    -0.6870 p5         1 UAD       1.486800
     11 O01         -1.1420     3.2650    -1.2120 o          1 UAD      -0.844500
     12 O02         -0.1080     1.1610    -0.1820 os         1 UAD      -0.696800
     13 C1A         -3.5280    -0.4780    -0.1990 c6         1 UAD       0.378900
     14 O1A          1.1280     2.3420    -2.1120 o          1 UAD      -0.844500
     15 O1B         -0.3960    -1.3240     0.0610 o          1 UAD      -0.842000
     16 C1C          3.3660     0.3590     1.1960 c5         1 UAD       0.322500
     17 C2A         -3.6080    -1.7080     0.7260 c6         1 UAD       0.113100
     18 O2A         -2.6730    -2.6840     0.3570 oh         1 UAD      -0.667800
     19 O2B         -1.1200    -0.1590    -2.1670 o          1 UAD      -0.842000
     20 C2C          4.5410     1.2160     0.7270 c5         1 UAD       0.044100
     21 O2C          5.7450     0.5550     0.9860 oh         1 UAD      -0.587800
     22 C3A         -4.9920    -2.3360     0.6160 c6         1 UAD       0.154100
     23 O3A         -5.0660    -3.4000     1.5300 oh         1 UAD      -0.559800
     24 O3B         -2.3760     0.2660     0.0370 os         1 UAD      -0.546200
     25 C3C          4.3190     2.4910     1.5480 c5         1 UAD       0.074100
     26 O3C          4.7490     2.3170     2.8740 oh         1 UAD      -0.590800
     27 C4A         -6.0860    -1.2930     0.8250 c6         1 UAD       0.070100
     28 O4A         -6.0580    -0.8720     2.1670 oh         1 UAD      -0.563800
     29 C4C          2.7980     2.5940     1.5290 c5         1 UAD       0.119100
     30 O4C          2.3190     1.2540     1.4460 os         1 UAD      -0.342600
     31 O5A         -4.5690     0.4230     0.0440 os         1 UAD      -0.377600
     32 C5C          2.3110     3.4290     0.3550 c3         1 UAD       0.201400
     33 O5C          0.9070     3.3850     0.2270 os         1 UAD      -0.553200
     34 C5M         -5.8440    -0.1450    -0.1430 c6         1 UAD       0.117400
     35 H5           1.8450    -0.8190    -2.9200 ha         1 UAD       0.191000
     36 H6           2.6880     0.7490    -1.2840 h4         1 UAD       0.190000
     37 H1A         -3.5710    -0.8300    -1.2470 h2         1 UAD       0.022700
     38 H1C          3.6530    -0.1750     2.1030 h2         1 UAD       0.099700
     39 H2A         -3.4510    -1.3570     1.7580 h1         1 UAD       0.065700
     40 HO2A        -1.7730    -2.2810     0.3350 ho         1 UAD       0.489000
     41 H2C          4.4460     1.4620    -0.3380 h1         1 UAD       0.066700
     42 HO2C         6.4360     0.9460     0.4420 ho         1 UAD       0.394000
     43 H3A         -5.1080    -2.6990    -0.4180 h1         1 UAD       0.028700
     44 HO3A        -5.9280    -3.8180     1.4380 ho         1 UAD       0.366000
     45 H3C          4.7960     3.3620     1.0810 h1         1 UAD       0.036700
     46 HO3C         5.6180     1.8990     2.8500 ho         1 UAD       0.401000
     47 H4A         -7.0580    -1.7430     0.5690 h1         1 UAD      -0.006300
     48 HO4A        -6.7750    -0.2440     2.3030 ho         1 UAD       0.381000
     49 H4C          2.4280     3.0330     2.4610 h1         1 UAD       0.085700
     50 H5C          2.6050     4.4660     0.5430 h1         1 UAD       0.013700
     51 H5CA         2.8020     3.1260    -0.5730 h1         1 UAD       0.013700
     52 H5M         -5.9730    -0.5030    -1.1750 h1         1 UAD       0.028200
     53 H5MA        -6.5730     0.6520     0.0130 h1         1 UAD       0.028200
     54 HN3          2.1640    -3.7690     0.0490 hn         1 UAD       0.319500
@<TRIPOS>BOND
     1     1     2 1   
     2     1     8 1   
     3     1    16 1   
     4     2     3 2   
     5     2     4 1   
     6     4     5 1   
     7     4    54 1   
     8     5     6 2   
     9     5     7 1   
    10     7     8 2   
    11     7    35 1   
    12     8    36 1   
    13     9    11 1   
    14     9    12 1   
    15     9    14 1   
    16     9    33 1   
    17    10    12 1   
    18    10    15 1   
    19    10    19 1   
    20    10    24 1   
    21    13    17 1   
    22    13    24 1   
    23    13    31 1   
    24    13    37 1   
    25    16    20 1   
    26    16    30 1   
    27    16    38 1   
    28    17    18 1   
    29    17    22 1   
    30    17    39 1   
    31    18    40 1   
    32    20    21 1   
    33    20    25 1   
    34    20    41 1   
    35    21    42 1   
    36    22    23 1   
    37    22    27 1   
    38    22    43 1   
    39    23    44 1   
    40    25    26 1   
    41    25    29 1   
    42    25    45 1   
    43    26    46 1   
    44    27    28 1   
    45    27    34 1   
    46    27    47 1   
    47    28    48 1   
    48    29    30 1   
    49    29    32 1   
    50    29    49 1   
    51    31    34 1   
    52    32    33 1   
    53    32    50 1   
    54    32    51 1   
    55    34    52 1   
    56    34    53 1   
@<TRIPOS>SUBSTRUCTURE
     1 UAD         1 TEMP              0 ****  ****    0 ROOT
