@<TRIPOS>MOLECULE
UAD
   54    56     1     0     0
SMALL
No Charge or Current Charge


@<TRIPOS>ATOM
      1 N1           3.0220    -1.0370     0.0440 n          1 UAD      -0.298000
      2 C2           3.3140    -2.3260     0.5310 c          1 UAD       0.656000
      3 O2           3.1970    -2.6480     1.7030 o          1 UAD      -0.607000
      4 N3           3.7450    -3.2330    -0.3880 ns         1 UAD      -0.444500
      5 C4           3.9080    -3.0570    -1.7230 c          1 UAD       0.618200
      6 O4           4.3050    -3.9500    -2.4520 o          1 UAD      -0.575000
      7 C5           3.5560    -1.7180    -2.1840 cc         1 UAD      -0.360200
      8 C6           3.1160    -0.7430    -1.3180 cd         1 UAD       0.000600
      9 PA           0.1550     2.8560    -1.9130 p5         1 UAD       1.475800
     10 PB          -1.6610     1.1210    -1.2370 p5         1 UAD       1.486800
     11 O01         -0.5830     3.8060    -2.7990 o          1 UAD      -0.844500
     12 O02         -0.7520     2.3080    -0.7500 os         1 UAD      -0.696800
     13 C1A         -3.7430     0.2330     0.0900 c6         1 UAD       0.425300
     14 O1A          0.9150     1.8320    -2.6870 o          1 UAD      -0.844500
     15 O1B         -0.9510    -0.1870    -1.3310 o          1 UAD      -0.842000
     16 C1C          2.5830    -0.0060     1.0210 c5         1 UAD       0.345700
     17 C2A         -3.4150    -1.3080     0.3280 c6         1 UAD       0.136300
     18 O2A         -2.6310    -1.9370    -0.7290 oh         1 UAD      -0.790000
     19 O2B         -2.4920     1.4300    -2.4350 o          1 UAD      -0.842000
     20 C2C          3.8120     0.9010     1.3600 c5         1 UAD       0.067300
     21 O2C          4.7340     0.3470     2.3230 oh         1 UAD      -0.710000
     22 C3A         -4.7600    -2.0990     0.5450 c6         1 UAD       0.177300
     23 O3A         -4.5190    -3.4570     0.9540 oh         1 UAD      -0.622000
     24 O3B         -2.5980     1.0900     0.0610 os         1 UAD      -0.569400
     25 C3C          3.0360     2.1140     1.9450 c5         1 UAD       0.097300
     26 O3C          2.5570     1.8150     3.2630 oh         1 UAD      -0.713000
     27 C4A         -5.6580    -1.4200     1.6240 c6         1 UAD       0.093300
     28 O4A         -5.0550    -1.5640     2.9290 oh         1 UAD      -0.686000
     29 C4C          1.8850     2.2530     0.8850 c5         1 UAD       0.142300
     30 O4C          1.6100     0.8920     0.4460 os         1 UAD      -0.389000
     31 O5A         -4.5740     0.7280     1.1580 os         1 UAD      -0.424000
     32 C5C          2.3070     3.1330    -0.3340 c3         1 UAD       0.224600
     33 O5C          1.1700     3.7150    -0.9970 os         1 UAD      -0.576400
     34 C5M         -5.8520     0.0740     1.2450 c6         1 UAD       0.140600
     35 H5           3.6540    -1.5480    -3.2500 ha         1 UAD       0.241000
     36 H6           2.8190     0.2630    -1.6100 h4         1 UAD       0.240000
     37 H1A         -4.2960     0.3410    -0.8550 h2         1 UAD       0.022700
     38 H1C          2.1710    -0.4920     1.9140 h2         1 UAD       0.099700
     39 H2A         -2.8500    -1.3570     1.2710 h1         1 UAD       0.065700
     40 HO2A        -1.8690    -1.2970    -0.9570 ho         1 UAD       0.588000
     41 H2C          4.3430     1.1850     0.4390 h1         1 UAD       0.066700
     42 HO2C         5.6130     0.7690     2.1730 ho         1 UAD       0.493000
     43 H3A         -5.3130    -2.0950    -0.4070 h1         1 UAD       0.028700
     44 HO3A        -4.4720    -3.3990     1.9340 ho         1 UAD       0.405000
     45 H3C          3.6670     3.0140     1.9750 h1         1 UAD       0.036700
     46 HO3C         3.2480     1.2210     3.6460 ho         1 UAD       0.500000
     47 H4A         -6.6440    -1.9070     1.6230 h1         1 UAD      -0.006300
     48 HO4A        -5.5580    -0.9850     3.5470 ho         1 UAD       0.480000
     49 H4C          0.9830     2.6850     1.3390 h1         1 UAD       0.085700
     50 H5C          2.9480     3.9450     0.0330 h1         1 UAD       0.013700
     51 H5CA         2.9120     2.5410    -1.0320 h1         1 UAD       0.013700
     52 H5M         -6.3740     0.1610     0.2810 h1         1 UAD       0.028200
     53 H5MA        -6.4610     0.5810     2.0070 h1         1 UAD       0.028200
     54 HN3          3.9630    -4.1480    -0.0330 hn         1 UAD       0.319500
@<TRIPOS>BOND
     1     1     2 1   
     2     1     8 1   
     3     1    16 1   
     4     2     3 2   
     5     2     4 1   
     6     4     5 1   
     7     4    54 1   
     8     5     6 2   
     9     5     7 1   
    10     7     8 2   
    11     7    35 1   
    12     8    36 1   
    13     9    11 1   
    14     9    12 1   
    15     9    14 1   
    16     9    33 1   
    17    10    12 1   
    18    10    15 1   
    19    10    19 1   
    20    10    24 1   
    21    13    17 1   
    22    13    24 1   
    23    13    31 1   
    24    13    37 1   
    25    16    20 1   
    26    16    30 1   
    27    16    38 1   
    28    17    18 1   
    29    17    22 1   
    30    17    39 1   
    31    18    40 1   
    32    20    21 1   
    33    20    25 1   
    34    20    41 1   
    35    21    42 1   
    36    22    23 1   
    37    22    27 1   
    38    22    43 1   
    39    23    44 1   
    40    25    26 1   
    41    25    29 1   
    42    25    45 1   
    43    26    46 1   
    44    27    28 1   
    45    27    34 1   
    46    27    47 1   
    47    28    48 1   
    48    29    30 1   
    49    29    32 1   
    50    29    49 1   
    51    31    34 1   
    52    32    33 1   
    53    32    50 1   
    54    32    51 1   
    55    34    52 1   
    56    34    53 1   
@<TRIPOS>SUBSTRUCTURE
     1 UAD         1 TEMP              0 ****  ****    0 ROOT
