@<TRIPOS>MOLECULE
UAE
   40    41     1     0     0
SMALL
abcg2


@<TRIPOS>ATOM
      1 C4         -15.7460   -28.5980     0.3790 c6         1 UAE       0.092500
      2 C5         -13.6330   -28.3730     1.5420 c          1 UAE       0.641100
      3 C6         -11.5320   -28.2020     2.8090 c6         1 UAE       0.115700
      4 C11        -10.9070   -26.8830     2.3530 c6         1 UAE      -0.091900
      5 C7         -11.1170   -28.5270     4.2410 c6         1 UAE      -0.091900
      6 C8          -9.5990   -28.5490     4.3870 c6         1 UAE      -0.071400
      7 C9          -8.9720   -27.2390     3.9220 c6         1 UAE      -0.077400
      8 C10         -9.3880   -26.9120     2.4920 c6         1 UAE      -0.071400
      9 C12        -15.8080   -28.2530     2.7560 c6         1 UAE       0.092500
     10 C13        -16.2890   -29.6770     3.0070 c6         1 UAE      -0.105900
     11 N1         -14.9940   -28.1790     1.5520 n          1 UAE      -0.399800
     12 N2         -12.9800   -28.1910     2.7220 ns         1 UAE      -0.508900
     13 C3         -16.2280   -30.0370     0.5250 c6         1 UAE      -0.105900
     14 C1         -17.4450   -31.6810     2.0020 c3         1 UAE      -0.086100
     15 C2         -17.0500   -30.2260     1.8000 c6         1 UAE      -0.060700
     16 O1         -13.0320   -28.6840     0.5170 o          1 UAE      -0.642100
     17 H1         -15.1400   -28.4730    -0.5130 h1         1 UAE       0.054950
     18 H2         -16.6060   -27.9280     0.2820 h1         1 UAE       0.054950
     19 H3         -11.1660   -29.0030     2.1610 h1         1 UAE       0.079700
     20 H4         -11.3160   -26.0690     2.9630 hc         1 UAE       0.044200
     21 H5         -11.1920   -26.6790     1.3180 hc         1 UAE       0.044200
     22 H6         -11.5340   -27.7720     4.9180 hc         1 UAE       0.044200
     23 H7         -11.5450   -29.4880     4.5380 hc         1 UAE       0.044200
     24 H8          -9.1920   -29.3750     3.7930 hc         1 UAE       0.042200
     25 H9          -9.3310   -28.7540     5.4260 hc         1 UAE       0.042200
     26 H10         -7.8840   -27.2940     3.9990 hc         1 UAE       0.039200
     27 H11         -9.2920   -26.4280     4.5860 hc         1 UAE       0.039200
     28 H12         -8.9760   -27.6670     1.8140 hc         1 UAE       0.042200
     29 H13         -8.9650   -25.9540     2.1820 hc         1 UAE       0.042200
     30 H14        -15.2860   -27.8600     3.6260 h1         1 UAE       0.054950
     31 H15        -16.6690   -27.5940     2.6120 h1         1 UAE       0.054950
     32 H16        -16.9290   -29.6930     3.8940 hc         1 UAE       0.050700
     33 H17        -15.4260   -30.3160     3.2290 hc         1 UAE       0.050700
     34 H18        -13.4490   -27.7180     3.4760 hn         1 UAE       0.300500
     35 H19        -16.8230   -30.3150    -0.3490 hc         1 UAE       0.050700
     36 H20        -15.3600   -30.7050     0.5420 hc         1 UAE       0.050700
     37 H21        -18.0490   -31.8080     2.9010 hc         1 UAE       0.034367
     38 H22        -18.0230   -32.0560     1.1550 hc         1 UAE       0.034367
     39 H23        -16.5590   -32.3130     2.1030 hc         1 UAE       0.034367
     40 H24        -17.9670   -29.6320     1.6940 hc         1 UAE       0.042700
@<TRIPOS>BOND
     1     1    11 1   
     2     1    13 1   
     3     1    17 1   
     4     1    18 1   
     5     2    11 1   
     6     2    12 1   
     7     2    16 2   
     8     3     4 1   
     9     3     5 1   
    10     3    12 1   
    11     3    19 1   
    12     4     8 1   
    13     4    20 1   
    14     4    21 1   
    15     5     6 1   
    16     5    22 1   
    17     5    23 1   
    18     6     7 1   
    19     6    24 1   
    20     6    25 1   
    21     7     8 1   
    22     7    26 1   
    23     7    27 1   
    24     8    28 1   
    25     8    29 1   
    26     9    10 1   
    27     9    11 1   
    28     9    30 1   
    29     9    31 1   
    30    10    15 1   
    31    10    32 1   
    32    10    33 1   
    33    12    34 1   
    34    13    15 1   
    35    13    35 1   
    36    13    36 1   
    37    14    15 1   
    38    14    37 1   
    39    14    38 1   
    40    14    39 1   
    41    15    40 1   
@<TRIPOS>SUBSTRUCTURE
     1 UAE         1 TEMP              0 ****  ****    0 ROOT
