@<TRIPOS>MOLECULE
UAE
   40    41     1     0     0
SMALL
No Charge or Current Charge


@<TRIPOS>ATOM
      1 C4         -15.6820   -28.8790     0.2990 c6         1 UAE       0.092500
      2 C5         -13.4310   -28.5180     1.4060 c          1 UAE       0.641100
      3 C6         -11.3100   -28.1880     2.7420 c6         1 UAE       0.115700
      4 C11        -10.8530   -26.7370     2.4320 c6         1 UAE      -0.091900
      5 C7         -10.8950   -28.5690     4.1870 c6         1 UAE      -0.091900
      6 C8          -9.3680   -28.4130     4.3970 c6         1 UAE      -0.071400
      7 C9          -8.9030   -26.9750     4.0650 c6         1 UAE      -0.077400
      8 C10         -9.3260   -26.5680     2.6320 c6         1 UAE      -0.071400
      9 C12        -15.6240   -28.5020     2.7510 c6         1 UAE       0.092500
     10 C13        -16.3980   -29.8180     3.0040 c6         1 UAE      -0.105900
     11 N1         -14.8380   -28.5880     1.4870 n          1 UAE      -0.399800
     12 N2         -12.7630   -28.3150     2.5890 ns         1 UAE      -0.508900
     13 C3         -16.4620   -30.2020     0.4880 c6         1 UAE      -0.105900
     14 C1         -18.0540   -31.5140     2.0170 c3         1 UAE      -0.086100
     15 C2         -17.3020   -30.1760     1.7940 c6         1 UAE      -0.060700
     16 O1         -12.8320   -28.6310     0.3480 o          1 UAE      -0.642100
     17 H1         -15.0720   -28.9440    -0.6130 h1         1 UAE       0.054950
     18 H2         -16.3920   -28.0510     0.1550 h1         1 UAE       0.054950
     19 H3         -10.8200   -28.8780     2.0390 h1         1 UAE       0.079700
     20 H4         -11.3900   -26.0290     3.0790 hc         1 UAE       0.044200
     21 H5         -11.1170   -26.4750     1.3980 hc         1 UAE       0.044200
     22 H6         -11.4310   -27.9400     4.9110 hc         1 UAE       0.044200
     23 H7         -11.1900   -29.6070     4.3960 hc         1 UAE       0.044200
     24 H8          -8.8310   -29.1320     3.7620 hc         1 UAE       0.042200
     25 H9          -9.1070   -28.6590     5.4360 hc         1 UAE       0.042200
     26 H10         -7.8110   -26.9020     4.1670 hc         1 UAE       0.039200
     27 H11         -9.3320   -26.2700     4.7910 hc         1 UAE       0.039200
     28 H12         -8.7870   -27.1830     1.8980 hc         1 UAE       0.042200
     29 H13         -9.0370   -25.5260     2.4400 hc         1 UAE       0.042200
     30 H14        -14.9930   -28.2810     3.6210 h1         1 UAE       0.054950
     31 H15        -16.3410   -27.6730     2.6630 h1         1 UAE       0.054950
     32 H16        -17.0060   -29.7180     3.9140 hc         1 UAE       0.050700
     33 H17        -15.6820   -30.6300     3.1910 hc         1 UAE       0.050700
     34 H18        -13.3340   -28.2370     3.4180 hn         1 UAE       0.300500
     35 H19        -17.1140   -30.3720    -0.3790 hc         1 UAE       0.050700
     36 H20        -15.7520   -31.0400     0.5170 hc         1 UAE       0.050700
     37 H21        -18.6730   -31.4730     2.9210 hc         1 UAE       0.034367
     38 H22        -18.7170   -31.7400     1.1730 hc         1 UAE       0.034367
     39 H23        -17.3560   -32.3520     2.1270 hc         1 UAE       0.034367
     40 H24        -18.0750   -29.4000     1.6950 hc         1 UAE       0.042700
@<TRIPOS>BOND
     1     1    11 1   
     2     1    13 1   
     3     1    17 1   
     4     1    18 1   
     5     2    11 1   
     6     2    12 1   
     7     2    16 2   
     8     3     4 1   
     9     3     5 1   
    10     3    12 1   
    11     3    19 1   
    12     4     8 1   
    13     4    20 1   
    14     4    21 1   
    15     5     6 1   
    16     5    22 1   
    17     5    23 1   
    18     6     7 1   
    19     6    24 1   
    20     6    25 1   
    21     7     8 1   
    22     7    26 1   
    23     7    27 1   
    24     8    28 1   
    25     8    29 1   
    26     9    10 1   
    27     9    11 1   
    28     9    30 1   
    29     9    31 1   
    30    10    15 1   
    31    10    32 1   
    32    10    33 1   
    33    12    34 1   
    34    13    15 1   
    35    13    35 1   
    36    13    36 1   
    37    14    15 1   
    38    14    37 1   
    39    14    38 1   
    40    14    39 1   
    41    15    40 1   
@<TRIPOS>SUBSTRUCTURE
     1 UAE         1 TEMP              0 ****  ****    0 ROOT
