@<TRIPOS>MOLECULE
UAF
   37    39     1     0     0
SMALL
abcg2


@<TRIPOS>ATOM
      1 C14         27.9860     4.3830    64.0550 c3         1 UAF       0.369300
      2 C11         27.1480     1.2910    62.5420 cc         1 UAF      -0.192000
      3 C10         26.0950     0.4470    62.1890 cd         1 UAF      -0.055000
      4 C12         26.5470     2.4190    63.1670 cc         1 UAF      -0.082000
      5 C13         26.7240     3.6410    63.7840 cd         1 UAF      -0.137300
      6 C01         25.4650     6.1170    68.6050 c3         1 UAF       0.083300
      7 C03         25.2400     5.1000    66.4040 cs         1 UAF       0.336400
      8 C05         25.1970     5.3380    64.8910 c3         1 UAF       0.038600
      9 C08         25.1080     2.2040    63.1530 cc         1 UAF      -0.055000
     10 C09         24.8170     0.9900    62.5520 cd         1 UAF      -0.246000
     11 C18         25.4470     7.5160    66.5640 ca         1 UAF      -0.013400
     12 C19         26.6750     8.1550    66.4310 ca         1 UAF      -0.104000
     13 C20         26.7230     9.4300    65.8810 ca         1 UAF      -0.099000
     14 C21         25.5500    10.0600    65.4730 ca         1 UAF      -0.095000
     15 C22         24.3260     9.4150    65.6160 ca         1 UAF      -0.099000
     16 C23         24.2700     8.1390    66.1680 ca         1 UAF      -0.104000
     17 F15         28.1480     4.6880    65.3650 f          1 UAF      -0.105000
     18 F16         29.0470     3.6530    63.6820 f          1 UAF      -0.105000
     19 F17         28.0490     5.5610    63.3880 f          1 UAF      -0.105000
     20 N02         25.3930     6.1970    67.1440 n          1 UAF      -0.221000
     21 N06         25.5100     4.1740    64.1040 na         1 UAF      -0.060000
     22 N07         24.5280     3.3090    63.6940 na         1 UAF      -0.179000
     23 S04         25.0900     3.5650    67.0380 s          1 UAF      -0.534400
     24 H1          28.2000     1.1180    62.3810 ha         1 UAF       0.132000
     25 H2          26.2180    -0.5110    61.7000 ha         1 UAF       0.114000
     26 H3          25.6520     7.1150    68.9900 h1         1 UAF       0.064700
     27 H4          24.5240     5.7360    69.0060 h1         1 UAF       0.064700
     28 H5          26.2680     5.4440    68.9020 h1         1 UAF       0.064700
     29 H6          25.8840     6.1330    64.6090 h1         1 UAF       0.091700
     30 H7          24.1980     5.6730    64.6070 h1         1 UAF       0.091700
     31 H8          23.8520     0.5400    62.3870 ha         1 UAF       0.129000
     32 H9          27.5790     7.6490    66.7450 ha         1 UAF       0.130500
     33 H10         27.6770     9.9300    65.7690 ha         1 UAF       0.126500
     34 H11         25.5920    11.0530    65.0430 ha         1 UAF       0.124000
     35 H12         23.4130     9.9030    65.3020 ha         1 UAF       0.126500
     36 H13         23.3250     7.6260    66.2880 ha         1 UAF       0.130500
     37 H14         23.6060     3.4120    64.0900 hn         1 UAF       0.370000
@<TRIPOS>BOND
     1     1     5 1   
     2     1    17 1   
     3     1    18 1   
     4     1    19 1   
     5     2     3 2   
     6     2     4 1   
     7     2    24 1   
     8     3    10 1   
     9     3    25 1   
    10     4     5 2   
    11     4     9 1   
    12     5    21 1   
    13     6    20 1   
    14     6    26 1   
    15     6    27 1   
    16     6    28 1   
    17     7     8 1   
    18     7    20 1   
    19     7    23 2   
    20     8    21 1   
    21     8    29 1   
    22     8    30 1   
    23     9    10 2   
    24     9    22 1   
    25    10    31 1   
    26    11    12 ar  
    27    11    16 ar  
    28    11    20 1   
    29    12    13 ar  
    30    12    32 1   
    31    13    14 ar  
    32    13    33 1   
    33    14    15 ar  
    34    14    34 1   
    35    15    16 ar  
    36    15    35 1   
    37    16    36 1   
    38    21    22 1   
    39    22    37 1   
@<TRIPOS>SUBSTRUCTURE
     1 UAF         1 TEMP              0 ****  ****    0 ROOT
