@<TRIPOS>MOLECULE
UAF
   37    39     1     0     0
SMALL
No Charge or Current Charge


@<TRIPOS>ATOM
      1 C14         27.6430     4.7110    64.3020 c3         1 UAF       0.369300
      2 C11         27.2430     1.8430    62.4020 cc         1 UAF      -0.192000
      3 C10         26.4030     0.8170    61.9560 cd         1 UAF      -0.055000
      4 C12         26.4140     2.7060    63.1530 cc         1 UAF      -0.082000
      5 C13         26.4730     3.8200    63.9400 cd         1 UAF      -0.137300
      6 C01         25.8050     6.0720    68.6470 c3         1 UAF       0.083300
      7 C03         24.7510     5.0800    66.6240 cs         1 UAF       0.336400
      8 C05         24.5530     5.1470    65.1010 c3         1 UAF       0.038600
      9 C08         25.1730     2.2310    63.1130 cc         1 UAF      -0.055000
     10 C09         25.0460     1.0550    62.4430 cd         1 UAF      -0.246000
     11 C18         25.4780     7.4790    66.6340 ca         1 UAF      -0.013400
     12 C19         26.7860     7.9880    66.4920 ca         1 UAF      -0.104000
     13 C20         27.0210     9.1570    65.7470 ca         1 UAF      -0.099000
     14 C21         25.9560     9.8080    65.1040 ca         1 UAF      -0.095000
     15 C22         24.6590     9.2770    65.1900 ca         1 UAF      -0.099000
     16 C23         24.4260     8.1070    65.9330 ca         1 UAF      -0.104000
     17 F15         27.8040     4.8080    65.6410 f          1 UAF      -0.105000
     18 F16         28.8110     4.2490    63.8010 f          1 UAF      -0.105000
     19 F17         27.4830     5.9670    63.8280 f          1 UAF      -0.105000
     20 N02         25.2810     6.2010    67.2680 n          1 UAF      -0.221000
     21 N06         25.1170     3.9820    64.3940 na         1 UAF      -0.060000
     22 N07         24.2990     2.9320    63.8680 na         1 UAF      -0.179000
     23 S04         24.3870     3.6490    67.4350 s          1 UAF      -0.534400
     24 H1          28.3120     1.9470    62.2440 ha         1 UAF       0.132000
     25 H2          26.7190    -0.0360    61.3620 ha         1 UAF       0.114000
     26 H3          26.1700     7.0400    69.0120 h1         1 UAF       0.064700
     27 H4          25.0090     5.7280    69.3180 h1         1 UAF       0.064700
     28 H5          26.6310     5.3500    68.6630 h1         1 UAF       0.064700
     29 H6          25.0310     6.0360    64.6830 h1         1 UAF       0.091700
     30 H7          23.4760     5.2120    64.9070 h1         1 UAF       0.091700
     31 H8          24.1580     0.4460    62.3070 ha         1 UAF       0.129000
     32 H9          27.6250     7.4750    66.9550 ha         1 UAF       0.130500
     33 H10         28.0320     9.5510    65.6590 ha         1 UAF       0.126500
     34 H11         26.1390    10.7110    64.5250 ha         1 UAF       0.124000
     35 H12         23.8360     9.7680    64.6750 ha         1 UAF       0.126500
     36 H13         23.4180     7.6990    65.9830 ha         1 UAF       0.130500
     37 H14         23.5020     2.6010    64.4000 hn         1 UAF       0.370000
@<TRIPOS>BOND
     1     1     5 1   
     2     1    17 1   
     3     1    18 1   
     4     1    19 1   
     5     2     3 2   
     6     2     4 1   
     7     2    24 1   
     8     3    10 1   
     9     3    25 1   
    10     4     5 2   
    11     4     9 1   
    12     5    21 1   
    13     6    20 1   
    14     6    26 1   
    15     6    27 1   
    16     6    28 1   
    17     7     8 1   
    18     7    20 1   
    19     7    23 2   
    20     8    21 1   
    21     8    29 1   
    22     8    30 1   
    23     9    10 2   
    24     9    22 1   
    25    10    31 1   
    26    11    12 ar  
    27    11    16 ar  
    28    11    20 1   
    29    12    13 ar  
    30    12    32 1   
    31    13    14 ar  
    32    13    33 1   
    33    14    15 ar  
    34    14    34 1   
    35    15    16 ar  
    36    15    35 1   
    37    16    36 1   
    38    21    22 1   
    39    22    37 1   
@<TRIPOS>SUBSTRUCTURE
     1 UAF         1 TEMP              0 ****  ****    0 ROOT
