@<TRIPOS>MOLECULE
UAG
   97    99     1     0     0
SMALL
abcg2


@<TRIPOS>ATOM
      1 C6          -3.4710     2.8480     0.3200 cc         1 UAG       0.069600
      2 C5          -2.8100     3.8840     0.8650 cd         1 UAG      -0.449200
      3 C4          -1.4720     4.1760     0.4370 c          1 UAG       0.602200
      4 O4          -0.7500     5.0640     0.8580 o          1 UAG      -0.617000
      5 N3          -1.0210     3.3240    -0.5610 ns         1 UAG      -0.477500
      6 C2          -1.6920     2.2850    -1.1630 c          1 UAG       0.617000
      7 O2          -1.1920     1.6590    -2.0710 o          1 UAG      -0.541000
      8 N1          -2.9590     2.0570    -0.6670 n          1 UAG      -0.282000
      9 C1B         -3.7370     0.9070    -1.1150 c5         1 UAG       0.343700
     10 C2B         -4.1300     0.9110    -2.5930 c5         1 UAG       0.059300
     11 O9          -5.2730     1.7010    -2.7740 oh         1 UAG      -0.707000
     12 C3B         -4.3510    -0.5860    -2.8310 c5         1 UAG       0.102300
     13 O3B         -5.6010    -0.9910    -2.3310 oh         1 UAG      -0.702000
     14 C4B         -3.2500    -1.1930    -1.9670 c5         1 UAG       0.159300
     15 O4B         -3.0500    -0.2810    -0.8900 os         1 UAG      -0.370000
     16 C5B         -1.9800    -1.4360    -2.7590 c3         1 UAG       0.223600
     17 O5B         -0.9720    -1.9240    -1.9000 os         1 UAG      -0.553400
     18 PA           0.1670    -2.8840    -2.5880 p5         1 UAG       1.466800
     19 O1A         -0.3170    -4.3010    -2.5890 o          1 UAG      -0.858000
     20 O2A          0.6530    -2.2500    -3.8550 o          1 UAG      -0.858000
     21 O3A          1.2620    -2.6680    -1.3770 os         1 UAG      -0.702800
     22 PB           2.6330    -3.5540    -1.2240 p5         1 UAG       1.466800
     23 O1B          2.9300    -4.2510    -2.5110 o          1 UAG      -0.843000
     24 O2B          2.5910    -4.2900     0.0780 o          1 UAG      -0.843000
     25 C1           4.4670    -2.0340     0.0350 c6         1 UAG       0.424300
     26 O1           3.6910    -2.2870    -1.1020 os         1 UAG      -0.622400
     27 C12          3.9420    -0.7760     0.7490 c6         1 UAG       0.041700
     28 N2           2.5300    -0.9250     1.0100 ns         1 UAG      -0.503900
     29 C7           2.0630    -1.6010     2.0890 c          1 UAG       0.623100
     30 O7           2.7650    -1.8750     3.0510 o          1 UAG      -0.651100
     31 C8           0.6210    -2.0170     2.0000 c3         1 UAG      -0.195100
     32 C3           4.2390     0.4770    -0.0690 c6         1 UAG       0.142300
     33 O3           4.0420     1.6730     0.6500 os         1 UAG      -0.483000
     34 C11          5.7100     0.4980    -0.4820 c6         1 UAG       0.143300
     35 O8           5.9730     1.5640    -1.3580 oh         1 UAG      -0.742000
     36 C10          6.0950    -0.8040    -1.1790 c6         1 UAG       0.184300
     37 O5           5.8020    -1.8970    -0.3260 os         1 UAG      -0.469000
     38 C9           7.5760    -0.8580    -1.4890 c3         1 UAG       0.166600
     39 O6           7.8470    -2.0430    -2.2000 oh         1 UAG      -0.683000
     40 C18          2.7380     2.1810     0.7560 c3         1 UAG       0.107300
     41 C20          2.7980     3.6920     0.5780 c3         1 UAG      -0.100100
     42 C19          2.1580     1.8540     2.1340 c          1 UAG       0.600100
     43 O18          2.8650     1.7590     3.1230 o          1 UAG      -0.623100
     44 N4           0.8240     1.7630     2.1530 ns         1 UAG      -0.485900
     45 C21          0.0390     1.4810     3.3280 c3         1 UAG       0.012700
     46 C23         -0.3660     2.7530     4.0720 c3         1 UAG      -0.095100
     47 C22         -1.1950     0.7120     2.8480 c          1 UAG       0.577100
     48 O19         -1.5460     0.7860     1.6810 o          1 UAG      -0.634100
     49 N5          -1.8170    -0.0030     3.7910 ns         1 UAG      -0.446900
     50 C24         -2.8260    -1.0100     3.5230 c3         1 UAG      -0.057300
     51 C25         -4.2600    -0.4880     3.6650 c3         1 UAG      -0.037400
     52 C26         -4.5840     0.6090     2.6660 c3         1 UAG      -0.203400
     53 C27         -6.0540     1.0230     2.5460 c          1 UAG       0.713000
     54 O20         -6.8700     0.5850     3.3790 o          1 UAG      -0.778500
     55 O21         -6.3250     1.8000     1.5970 o          1 UAG      -0.778500
     56 C28         -2.5850    -2.2200     4.4600 c          1 UAG       0.715000
     57 O22         -3.3170    -3.2070     4.2660 o          1 UAG      -0.743500
     58 O23         -1.6940    -2.1080     5.3280 o          1 UAG      -0.743500
     59 H6          -4.4710     2.5910     0.6550 h4         1 UAG       0.280000
     60 H5          -3.2690     4.4790     1.6390 ha         1 UAG       0.207000
     61 HN3         -0.1180     3.5370    -0.9670 hn         1 UAG       0.312500
     62 H1B         -4.6510     0.9460    -0.5090 h2         1 UAG       0.119700
     63 H2B         -3.3000     1.2540    -3.2150 h1         1 UAG       0.069700
     64 HO'2        -5.3170     1.9740    -3.6950 ho         1 UAG       0.480000
     65 H3B         -4.2360    -0.8520    -3.8900 h1         1 UAG       0.034700
     66 HO'3        -6.2470    -0.3200    -2.5820 ho         1 UAG       0.497000
     67 H4B         -3.5820    -2.1490    -1.5460 h1         1 UAG       0.103700
     68 H5'1        -1.6490    -0.5210    -3.2550 h1         1 UAG       0.010700
     69 H5'2        -2.2370    -2.1590    -3.5440 h1         1 UAG       0.010700
     70 H1           4.4270    -2.8780     0.7280 h2         1 UAG       0.106700
     71 H2           4.4580    -0.6900     1.7070 h1         1 UAG       0.078700
     72 HN2          1.9190    -0.8990     0.2060 hn         1 UAG       0.343500
     73 H8'1         0.1610    -2.0130     2.9860 hc         1 UAG       0.086033
     74 H8'2         0.0320    -1.4070     1.3180 hc         1 UAG       0.086033
     75 H8'3         0.6030    -3.0410     1.6220 hc         1 UAG       0.086033
     76 H3           3.6200     0.4780    -0.9800 h1         1 UAG       0.077700
     77 H4           6.3140     0.5800     0.4360 h1         1 UAG       0.028700
     78 HO4          5.7290     2.3810    -0.9100 ho         1 UAG       0.504000
     79 H7           5.5360    -0.8850    -2.1210 h1         1 UAG       0.095700
     80 H6'1         7.8400     0.0300    -2.0710 h1         1 UAG       0.005700
     81 H6'2         8.1430    -0.8080    -0.5480 h1         1 UAG       0.005700
     82 HO6          8.7630    -2.0120    -2.4870 ho         1 UAG       0.461000
     83 H18          2.0980     1.7540    -0.0280 h1         1 UAG       0.068700
     84 H201         3.4780     4.1390     1.3030 hc         1 UAG       0.036700
     85 H202         3.1500     3.9390    -0.4240 hc         1 UAG       0.036700
     86 H203         1.8170     4.1450     0.7170 hc         1 UAG       0.036700
     87 HN4          0.3000     1.7600     1.2890 hn         1 UAG       0.342500
     88 H21          0.6250     0.8460     3.9980 h1         1 UAG       0.086700
     89 H231        -0.9450     3.4100     3.4230 hc         1 UAG       0.032367
     90 H232        -0.9660     2.5180     4.9510 hc         1 UAG       0.032367
     91 H233         0.5200     3.2920     4.4040 hc         1 UAG       0.032367
     92 HN5         -1.3430    -0.1500     4.6730 hn         1 UAG       0.323500
     93 H24         -2.6930    -1.3520     2.4910 h1         1 UAG       0.075700
     94 H251        -4.9330    -1.3330     3.5170 hc         1 UAG       0.039200
     95 H252        -4.4210    -0.1400     4.6900 hc         1 UAG       0.039200
     96 H261        -4.0050     1.5080     2.8980 hc         1 UAG       0.025700
     97 H262        -4.2330     0.3020     1.6780 hc         1 UAG       0.025700
@<TRIPOS>BOND
     1     1     2 2   
     2     1     8 1   
     3     1    59 1   
     4     2     3 1   
     5     2    60 1   
     6     3     4 2   
     7     3     5 1   
     8     5     6 1   
     9     5    61 1   
    10     6     7 2   
    11     6     8 1   
    12     8     9 1   
    13     9    10 1   
    14     9    15 1   
    15     9    62 1   
    16    10    11 1   
    17    10    12 1   
    18    10    63 1   
    19    11    64 1   
    20    12    13 1   
    21    12    14 1   
    22    12    65 1   
    23    13    66 1   
    24    14    15 1   
    25    14    16 1   
    26    14    67 1   
    27    16    17 1   
    28    16    68 1   
    29    16    69 1   
    30    17    18 1   
    31    18    19 1   
    32    18    20 1   
    33    18    21 1   
    34    21    22 1   
    35    22    23 1   
    36    22    24 1   
    37    22    26 1   
    38    25    26 1   
    39    25    27 1   
    40    25    37 1   
    41    25    70 1   
    42    27    28 1   
    43    27    32 1   
    44    27    71 1   
    45    28    29 1   
    46    28    72 1   
    47    29    30 2   
    48    29    31 1   
    49    31    73 1   
    50    31    74 1   
    51    31    75 1   
    52    32    33 1   
    53    32    34 1   
    54    32    76 1   
    55    33    40 1   
    56    34    35 1   
    57    34    36 1   
    58    34    77 1   
    59    35    78 1   
    60    36    37 1   
    61    36    38 1   
    62    36    79 1   
    63    38    39 1   
    64    38    80 1   
    65    38    81 1   
    66    39    82 1   
    67    40    41 1   
    68    40    42 1   
    69    40    83 1   
    70    41    84 1   
    71    41    85 1   
    72    41    86 1   
    73    42    43 2   
    74    42    44 1   
    75    44    45 1   
    76    44    87 1   
    77    45    46 1   
    78    45    47 1   
    79    45    88 1   
    80    46    89 1   
    81    46    90 1   
    82    46    91 1   
    83    47    48 2   
    84    47    49 1   
    85    49    50 1   
    86    49    92 1   
    87    50    51 1   
    88    50    56 1   
    89    50    93 1   
    90    51    52 1   
    91    51    94 1   
    92    51    95 1   
    93    52    53 1   
    94    52    96 1   
    95    52    97 1   
    96    53    54 1   
    97    53    55 1   
    98    56    57 1   
    99    56    58 1   
@<TRIPOS>SUBSTRUCTURE
     1 UAG         1 TEMP              0 ****  ****    0 ROOT
