@<TRIPOS>MOLECULE
UAG
   97    99     1     0     0
SMALL
No Charge or Current Charge


@<TRIPOS>ATOM
      1 C6          -4.5950     2.2380     0.0570 cc         1 UAG       0.069600
      2 C5          -4.5270     3.3630     0.8460 cd         1 UAG      -0.449200
      3 C4          -3.2550     3.9840     1.1950 c          1 UAG       0.602200
      4 O4          -3.1490     4.9810     1.8850 o          1 UAG      -0.617000
      5 N3          -2.1840     3.3550     0.6600 ns         1 UAG      -0.477500
      6 C2          -2.1590     2.2440    -0.1280 c          1 UAG       0.617000
      7 O2          -1.0850     1.8390    -0.5390 o          1 UAG      -0.541000
      8 N1          -3.4140     1.6650    -0.4260 n          1 UAG      -0.282000
      9 C1B         -3.5300     0.4420    -1.2790 c5         1 UAG       0.343700
     10 C2B         -3.7330     0.9250    -2.7510 c5         1 UAG       0.059300
     11 O9          -5.0750     1.3620    -3.0570 oh         1 UAG      -0.707000
     12 C3B         -3.3820    -0.3970    -3.4850 c5         1 UAG       0.102300
     13 O3B         -4.4740    -1.3210    -3.3940 oh         1 UAG      -0.702000
     14 C4B         -2.1230    -0.8540    -2.6690 c5         1 UAG       0.159300
     15 O4B         -2.3730    -0.4240    -1.2990 os         1 UAG      -0.370000
     16 C5B         -0.8020    -0.2030    -3.1800 c3         1 UAG       0.223600
     17 O5B          0.3380    -0.8150    -2.5590 os         1 UAG      -0.553400
     18 PA           0.9330    -2.2090    -3.1010 p5         1 UAG       1.466800
     19 O1A          0.0530    -3.3400    -2.6950 o          1 UAG      -0.858000
     20 O2A          1.1660    -2.1390    -4.5730 o          1 UAG      -0.858000
     21 O3A          2.2690    -2.0760    -2.2880 os         1 UAG      -0.702800
     22 PB           3.0020    -3.4400    -2.0210 p5         1 UAG       1.466800
     23 O1B          3.2500    -4.2380    -3.2570 o          1 UAG      -0.843000
     24 O2B          2.4130    -4.2470    -0.9150 o          1 UAG      -0.843000
     25 C1           4.5990    -2.4020    -0.1640 c6         1 UAG       0.424300
     26 O1           4.3900    -2.7970    -1.5330 os         1 UAG      -0.622400
     27 C12          3.8190    -1.1130     0.3220 c6         1 UAG       0.041700
     28 N2           2.3540    -1.3300     0.3250 ns         1 UAG      -0.503900
     29 C7           1.6320    -1.9280     1.3260 c          1 UAG       0.623100
     30 O7           2.1210    -2.2110     2.4090 o          1 UAG      -0.651100
     31 C8           0.1770    -2.1990     0.9860 c3         1 UAG      -0.195100
     32 C3           4.2770     0.1100    -0.5510 c6         1 UAG       0.142300
     33 O3           3.7690     1.4220    -0.1500 os         1 UAG      -0.483000
     34 C11          5.8320     0.2330    -0.5010 c6         1 UAG       0.143300
     35 O8           6.2570     1.3350    -1.3240 oh         1 UAG      -0.742000
     36 C10          6.5310    -1.1060    -0.8720 c6         1 UAG       0.184300
     37 O5           6.0160    -2.1740    -0.0280 os         1 UAG      -0.469000
     38 C9           8.0850    -1.0330    -0.6840 c3         1 UAG       0.166600
     39 O6           8.7590    -2.2770    -0.9520 oh         1 UAG      -0.683000
     40 C18          2.3500     1.6650     0.0560 c3         1 UAG       0.107300
     41 C20          2.1200     3.1180    -0.4120 c3         1 UAG      -0.100100
     42 C19          1.9440     1.5120     1.5600 c          1 UAG       0.600100
     43 O18          2.7560     1.5470     2.4810 o          1 UAG      -0.623100
     44 N4           0.6020     1.2830     1.8050 ns         1 UAG      -0.485900
     45 C21          0.0080     1.1570     3.1580 c3         1 UAG       0.012700
     46 C23         -0.1400     2.5480     3.8190 c3         1 UAG      -0.095100
     47 C22         -1.3470     0.3940     3.1250 c          1 UAG       0.577100
     48 O19         -1.9240     0.1030     2.0880 o          1 UAG      -0.634100
     49 N5          -1.8520     0.0520     4.3640 ns         1 UAG      -0.446900
     50 C24         -3.1390    -0.6480     4.6060 c3         1 UAG      -0.057300
     51 C25         -4.3050     0.3360     4.8910 c3         1 UAG      -0.037400
     52 C26         -4.6040     1.3460     3.7530 c3         1 UAG      -0.203400
     53 C27         -5.8820     2.1390     4.0740 c          1 UAG       0.713000
     54 O20         -5.7830     3.1540     4.7450 o          1 UAG      -0.778500
     55 O21         -6.9530     1.6830     3.7040 o          1 UAG      -0.778500
     56 C28         -2.9850    -1.6800     5.7630 c          1 UAG       0.715000
     57 O22         -3.3590    -2.8280     5.5660 o          1 UAG      -0.743500
     58 O23         -2.4080    -1.3310     6.7850 o          1 UAG      -0.743500
     59 H6          -5.5060     1.7260    -0.2560 h4         1 UAG       0.280000
     60 H5          -5.4080     3.8460     1.2500 ha         1 UAG       0.207000
     61 HN3         -1.2890     3.7680     0.8630 hn         1 UAG       0.312500
     62 H1B         -4.4010    -0.1290    -0.9330 h2         1 UAG       0.119700
     63 H2B         -3.0050     1.7130    -2.9950 h1         1 UAG       0.069700
     64 HO'2        -5.0220     1.9760    -3.8280 ho         1 UAG       0.480000
     65 H3B         -3.1330    -0.2150    -4.5400 h1         1 UAG       0.034700
     66 HO'3        -5.2810    -0.7510    -3.4160 ho         1 UAG       0.497000
     67 H4B         -2.0280    -1.9450    -2.6970 h1         1 UAG       0.103700
     68 H5'1        -0.8130     0.8730    -2.9710 h1         1 UAG       0.010700
     69 H5'2        -0.7500    -0.3190    -4.2700 h1         1 UAG       0.010700
     70 H1           4.3200    -3.2380     0.4980 h2         1 UAG       0.106700
     71 H2           4.1270    -0.9130     1.3580 h1         1 UAG       0.078700
     72 HN2          1.8750    -1.2290    -0.5660 hn         1 UAG       0.343500
     73 H8'1        -0.4100    -2.4930     1.8610 hc         1 UAG       0.086033
     74 H8'2        -0.2500    -1.3360     0.4630 hc         1 UAG       0.086033
     75 H8'3         0.1440    -2.9790     0.2190 hc         1 UAG       0.086033
     76 H3           3.9700    -0.0740    -1.5920 h1         1 UAG       0.077700
     77 H4           6.1010     0.4540     0.5430 h1         1 UAG       0.028700
     78 HO4          5.5630     2.0240    -1.1760 ho         1 UAG       0.504000
     79 H7           6.3330    -1.3410    -1.9270 h1         1 UAG       0.095700
     80 H6'1         8.4780    -0.2540    -1.3500 h1         1 UAG       0.005700
     81 H6'2         8.2920    -0.7150     0.3460 h1         1 UAG       0.005700
     82 HO6          9.7090    -2.1370    -0.7390 ho         1 UAG       0.461000
     83 H18          1.7280     1.0030    -0.5590 h1         1 UAG       0.068700
     84 H201         2.7500     3.8130     0.1550 hc         1 UAG       0.036700
     85 H202         2.3590     3.2200    -1.4770 hc         1 UAG       0.036700
     86 H203         1.0750     3.4140    -0.2680 hc         1 UAG       0.036700
     87 HN4         -0.0180     1.2450     0.9970 hn         1 UAG       0.342500
     88 H21          0.6870     0.5520     3.7740 h1         1 UAG       0.086700
     89 H231        -0.8450     3.1720     3.2560 hc         1 UAG       0.032367
     90 H232        -0.5120     2.4570     4.8460 hc         1 UAG       0.032367
     91 H233         0.8240     3.0690     3.8580 hc         1 UAG       0.032367
     92 HN5         -1.2950     0.3070     5.1720 hn         1 UAG       0.323500
     93 H24         -3.3920    -1.2250     3.7070 h1         1 UAG       0.075700
     94 H251        -5.2100    -0.2540     5.0830 hc         1 UAG       0.039200
     95 H252        -4.0940     0.8900     5.8150 hc         1 UAG       0.039200
     96 H261        -3.7400     2.0200     3.7080 hc         1 UAG       0.025700
     97 H262        -4.7440     0.7480     2.8440 hc         1 UAG       0.025700
@<TRIPOS>BOND
     1     1     2 2   
     2     1     8 1   
     3     1    59 1   
     4     2     3 1   
     5     2    60 1   
     6     3     4 2   
     7     3     5 1   
     8     5     6 1   
     9     5    61 1   
    10     6     7 2   
    11     6     8 1   
    12     8     9 1   
    13     9    10 1   
    14     9    15 1   
    15     9    62 1   
    16    10    11 1   
    17    10    12 1   
    18    10    63 1   
    19    11    64 1   
    20    12    13 1   
    21    12    14 1   
    22    12    65 1   
    23    13    66 1   
    24    14    15 1   
    25    14    16 1   
    26    14    67 1   
    27    16    17 1   
    28    16    68 1   
    29    16    69 1   
    30    17    18 1   
    31    18    19 1   
    32    18    20 1   
    33    18    21 1   
    34    21    22 1   
    35    22    23 1   
    36    22    24 1   
    37    22    26 1   
    38    25    26 1   
    39    25    27 1   
    40    25    37 1   
    41    25    70 1   
    42    27    28 1   
    43    27    32 1   
    44    27    71 1   
    45    28    29 1   
    46    28    72 1   
    47    29    30 2   
    48    29    31 1   
    49    31    73 1   
    50    31    74 1   
    51    31    75 1   
    52    32    33 1   
    53    32    34 1   
    54    32    76 1   
    55    33    40 1   
    56    34    35 1   
    57    34    36 1   
    58    34    77 1   
    59    35    78 1   
    60    36    37 1   
    61    36    38 1   
    62    36    79 1   
    63    38    39 1   
    64    38    80 1   
    65    38    81 1   
    66    39    82 1   
    67    40    41 1   
    68    40    42 1   
    69    40    83 1   
    70    41    84 1   
    71    41    85 1   
    72    41    86 1   
    73    42    43 2   
    74    42    44 1   
    75    44    45 1   
    76    44    87 1   
    77    45    46 1   
    78    45    47 1   
    79    45    88 1   
    80    46    89 1   
    81    46    90 1   
    82    46    91 1   
    83    47    48 2   
    84    47    49 1   
    85    49    50 1   
    86    49    92 1   
    87    50    51 1   
    88    50    56 1   
    89    50    93 1   
    90    51    52 1   
    91    51    94 1   
    92    51    95 1   
    93    52    53 1   
    94    52    96 1   
    95    52    97 1   
    96    53    54 1   
    97    53    55 1   
    98    56    57 1   
    99    56    58 1   
@<TRIPOS>SUBSTRUCTURE
     1 UAG         1 TEMP              0 ****  ****    0 ROOT
