@<TRIPOS>MOLECULE
UAI
   33    34     1     0     0
SMALL
No Charge or Current Charge


@<TRIPOS>ATOM
      1 C1           9.9690   -18.3850    -1.5950 ca         1 UAI      -0.060500
      2 C2           9.1490   -17.3710    -1.0720 ca         1 UAI      -0.169500
      3 C3           8.3030   -16.6390    -1.9200 ca         1 UAI       0.150600
      4 C4           8.2820   -16.9310    -3.3000 ca         1 UAI       0.046500
      5 C5           9.1030   -17.9470    -3.8210 ca         1 UAI      -0.062500
      6 C6           9.9640   -18.6900    -2.9750 ca         1 UAI      -0.103800
      7 C10         12.3290   -19.5330    -3.0030 ca         1 UAI      -0.103800
      8 C11         13.1120   -20.4900    -2.3090 ca         1 UAI      -0.062500
      9 C12         14.4160   -20.1780    -1.8850 ca         1 UAI       0.046500
     10 C13         14.9630   -18.9070    -2.1470 ca         1 UAI       0.150600
     11 C14         14.2010   -17.9540    -2.8340 ca         1 UAI      -0.169500
     12 C15         12.8980   -18.2630    -3.2590 ca         1 UAI      -0.060500
     13 C7          10.8890   -19.8180    -3.4940 c3         1 UAI       0.062600
     14 C8          10.3150   -21.1620    -2.9670 c3         1 UAI      -0.085100
     15 C9          10.9410   -19.9050    -5.0450 c3         1 UAI      -0.085100
     16 O16         16.2290   -18.5890    -1.7410 oh         1 UAI      -0.520100
     17 O19          7.5100   -15.6540    -1.3990 oh         1 UAI      -0.520100
     18 Cl17        15.3560   -21.3980    -1.0240 cl         1 UAI      -0.199000
     19 Cl18         7.2310   -16.0370    -4.4010 cl         1 UAI      -0.199000
     20 H1          10.6170   -18.9380    -0.9180 ha         1 UAI       0.122500
     21 H2           9.1780   -17.1600    -0.0060 ha         1 UAI       0.125500
     22 H3           9.0520   -18.1400    -4.8880 ha         1 UAI       0.130000
     23 H4          12.7320   -21.4820    -2.0900 ha         1 UAI       0.130000
     24 H5          14.6190   -16.9710    -3.0390 ha         1 UAI       0.125500
     25 H6          12.3240   -17.5060    -3.7900 ha         1 UAI       0.122500
     26 H7          10.3360   -21.2050    -1.8720 hc         1 UAI       0.040533
     27 H8           9.2720   -21.2840    -3.2830 hc         1 UAI       0.040533
     28 H9          10.8790   -22.0180    -3.3570 hc         1 UAI       0.040533
     29 H10         11.2520   -18.9530    -5.4900 hc         1 UAI       0.040533
     30 H11         11.6610   -20.6700    -5.3610 hc         1 UAI       0.040533
     31 H12          9.9640   -20.1800    -5.4620 hc         1 UAI       0.040533
     32 H13         16.6030   -19.3720    -1.2820 ho         1 UAI       0.473500
     33 H14          7.6670   -15.6050    -0.4320 ho         1 UAI       0.473500
@<TRIPOS>BOND
     1     1     2 ar  
     2     1     6 ar  
     3     1    20 1   
     4     2     3 ar  
     5     2    21 1   
     6     3     4 ar  
     7     3    17 1   
     8     4     5 ar  
     9     4    19 1   
    10     5     6 ar  
    11     5    22 1   
    12     6    13 1   
    13     7     8 ar  
    14     7    12 ar  
    15     7    13 1   
    16     8     9 ar  
    17     8    23 1   
    18     9    10 ar  
    19     9    18 1   
    20    10    11 ar  
    21    10    16 1   
    22    11    12 ar  
    23    11    24 1   
    24    12    25 1   
    25    13    14 1   
    26    13    15 1   
    27    14    26 1   
    28    14    27 1   
    29    14    28 1   
    30    15    29 1   
    31    15    30 1   
    32    15    31 1   
    33    16    32 1   
    34    17    33 1   
@<TRIPOS>SUBSTRUCTURE
     1 UAI         1 TEMP              0 ****  ****    0 ROOT
