@<TRIPOS>MOLECULE
UAI
   33    34     1     0     0
SMALL
abcg2


@<TRIPOS>ATOM
      1 C1           9.9560   -18.3970    -1.5910 ca         1 UAI      -0.060500
      2 C2           9.1230   -17.4230    -1.0720 ca         1 UAI      -0.169500
      3 C3           8.2900   -16.6800    -1.9070 ca         1 UAI       0.150600
      4 C4           8.3350   -16.9500    -3.2700 ca         1 UAI       0.046500
      5 C5           9.1690   -17.9300    -3.7880 ca         1 UAI      -0.062500
      6 C6           9.9940   -18.6780    -2.9570 ca         1 UAI      -0.103800
      7 C10         12.3220   -19.5230    -2.9940 ca         1 UAI      -0.103800
      8 C11         13.0710   -20.4550    -2.2930 ca         1 UAI      -0.062500
      9 C12         14.3710   -20.1690    -1.8960 ca         1 UAI       0.046500
     10 C13         14.9710   -18.9470    -2.1800 ca         1 UAI       0.150600
     11 C14         14.2170   -18.0110    -2.8890 ca         1 UAI      -0.169500
     12 C15         12.9260   -18.2960    -3.2810 ca         1 UAI      -0.060500
     13 C7          10.8990   -19.7930    -3.4740 c3         1 UAI       0.062600
     14 C8          10.3500   -21.1260    -2.9550 c3         1 UAI      -0.085100
     15 C9          10.9210   -19.8660    -5.0060 c3         1 UAI      -0.085100
     16 O16         16.2170   -18.6130    -1.8130 oh         1 UAI      -0.520100
     17 O19          7.4560   -15.7260    -1.4650 oh         1 UAI      -0.520100
     18 CL17        15.2740   -21.3640    -1.0140 cl         1 UAI      -0.199000
     19 CL18         7.3250   -16.0340    -4.3380 cl         1 UAI      -0.199000
     20 H1          10.5950   -18.9460    -0.9090 ha         1 UAI       0.122500
     21 H2           9.1170   -17.2310    -0.0050 ha         1 UAI       0.125500
     22 H3           9.1600   -18.0950    -4.8560 ha         1 UAI       0.130000
     23 H4          12.6610   -21.4220    -2.0380 ha         1 UAI       0.130000
     24 H5          14.6620   -17.0510    -3.1220 ha         1 UAI       0.125500
     25 H6          12.3700   -17.5370    -3.8190 ha         1 UAI       0.122500
     26 H7          10.3410   -21.1770    -1.8650 hc         1 UAI       0.040533
     27 H8           9.3240   -21.2580    -3.3000 hc         1 UAI       0.040533
     28 H9          10.9320   -21.9700    -3.3290 hc         1 UAI       0.040533
     29 H10         11.2580   -18.9350    -5.4630 hc         1 UAI       0.040533
     30 H11         11.6010   -20.6570    -5.3230 hc         1 UAI       0.040533
     31 H12          9.9340   -20.1030    -5.4070 hc         1 UAI       0.040533
     32 H13         16.6470   -19.3340    -1.3350 ho         1 UAI       0.473500
     33 H14          7.5260   -15.6390    -0.5070 ho         1 UAI       0.473500
@<TRIPOS>BOND
     1     1     2 ar  
     2     1     6 ar  
     3     1    20 1   
     4     2     3 ar  
     5     2    21 1   
     6     3     4 ar  
     7     3    17 1   
     8     4     5 ar  
     9     4    19 1   
    10     5     6 ar  
    11     5    22 1   
    12     6    13 1   
    13     7     8 ar  
    14     7    12 ar  
    15     7    13 1   
    16     8     9 ar  
    17     8    23 1   
    18     9    10 ar  
    19     9    18 1   
    20    10    11 ar  
    21    10    16 1   
    22    11    12 ar  
    23    11    24 1   
    24    12    25 1   
    25    13    14 1   
    26    13    15 1   
    27    14    26 1   
    28    14    27 1   
    29    14    28 1   
    30    15    29 1   
    31    15    30 1   
    32    15    31 1   
    33    16    32 1   
    34    17    33 1   
@<TRIPOS>SUBSTRUCTURE
     1 UAI         1 TEMP              0 ****  ****    0 ROOT
