@<TRIPOS>MOLECULE
UAJ
   42    45     1     0     0
SMALL
bcc


@<TRIPOS>ATOM
      1 C01         29.1160   -11.8660    50.4330 ca         1 UAJ      -0.120000
      2 C02         29.4530   -11.0190    51.4790 ca         1 UAJ      -0.128500
      3 C03         28.6830   -11.0020    52.6340 ca         1 UAJ      -0.107000
      4 C04         27.5730   -11.8300    52.7610 ca         1 UAJ      -0.076300
      5 C05         27.2420   -12.6790    51.7090 ca         1 UAJ      -0.107000
      6 C06         28.0090   -12.6960    50.5520 ca         1 UAJ      -0.128500
      7 C07         26.7420   -11.7620    54.0190 c3         1 UAJ      -0.062100
      8 C08         26.4080   -13.1210    54.5970 ca         1 UAJ      -0.083300
      9 C09         27.2800   -13.7070    55.5090 ca         1 UAJ      -0.112000
     10 C10         27.0300   -14.9660    56.0300 ca         1 UAJ      -0.119000
     11 C11         25.8860   -15.6440    55.6370 ca         1 UAJ       0.030400
     12 C12         24.9970   -15.0810    54.7370 ca         1 UAJ      -0.119000
     13 C13         25.2650   -13.8200    54.2220 ca         1 UAJ      -0.112000
     14 C15         25.4780   -10.9450    53.8270 c          1 UAJ       0.605100
     15 C17         24.7420   -10.5730    55.1030 c5         1 UAJ      -0.399700
     16 C18         25.1820    -9.1800    55.5600 c          1 UAJ       0.606200
     17 C20         23.9770    -8.3340    55.6160 ca         1 UAJ      -0.149600
     18 C21         23.8790    -7.0020    55.9890 ca         1 UAJ      -0.068500
     19 C22         22.6220    -6.4180    55.9640 ca         1 UAJ      -0.114500
     20 C23         21.4950    -7.1480    55.5750 ca         1 UAJ      -0.114500
     21 C24         21.5980    -8.4800    55.2020 ca         1 UAJ      -0.068500
     22 C25         22.8570    -9.0600    55.2280 ca         1 UAJ      -0.149600
     23 C26         23.2400   -10.4420    54.8880 c          1 UAJ       0.606200
     24 O16         25.0780   -10.5660    52.7580 o          1 UAJ      -0.479100
     25 O19         26.3120    -8.8500    55.8080 o          1 UAJ      -0.486100
     26 O27         22.5090   -11.3200    54.5090 o          1 UAJ      -0.486100
     27 CL1         25.5610   -17.2160    56.2860 cl         1 UAJ      -0.108400
     28 H011        29.7140   -11.8820    49.5310 ha         1 UAJ       0.131000
     29 H021        30.3170   -10.3720    51.4000 ha         1 UAJ       0.131500
     30 H031        28.9510   -10.3380    53.4470 ha         1 UAJ       0.133000
     31 H051        26.3910   -13.3430    51.7860 ha         1 UAJ       0.133000
     32 H061        27.7410   -13.3620    49.7420 ha         1 UAJ       0.131500
     33 H071        27.3180   -11.2220    54.7810 hc         1 UAJ       0.087700
     34 H091        28.1710   -13.1770    55.8210 ha         1 UAJ       0.143500
     35 H101        27.7180   -15.4100    56.7370 ha         1 UAJ       0.150500
     36 H121        24.1030   -15.6110    54.4380 ha         1 UAJ       0.150500
     37 H131        24.5560   -13.3940    53.5200 ha         1 UAJ       0.143500
     38 H171        24.9490   -11.2920    55.9030 hc         1 UAJ       0.123700
     39 H211        24.7510    -6.4360    56.2890 ha         1 UAJ       0.155000
     40 H221        22.5050    -5.3810    56.2480 ha         1 UAJ       0.140000
     41 H231        20.5280    -6.6630    55.5690 ha         1 UAJ       0.140000
     42 H241        20.7240    -9.0430    54.9020 ha         1 UAJ       0.155000
@<TRIPOS>BOND
     1     1     2 ar  
     2     1     6 ar  
     3     1    28 1   
     4     2     3 ar  
     5     2    29 1   
     6     3     4 ar  
     7     3    30 1   
     8     4     5 ar  
     9     4     7 1   
    10     5     6 ar  
    11     5    31 1   
    12     6    32 1   
    13     7     8 1   
    14     7    14 1   
    15     7    33 1   
    16     8     9 ar  
    17     8    13 ar  
    18     9    10 ar  
    19     9    34 1   
    20    10    11 ar  
    21    10    35 1   
    22    11    12 ar  
    23    11    27 1   
    24    12    13 ar  
    25    12    36 1   
    26    13    37 1   
    27    14    15 1   
    28    14    24 2   
    29    15    16 1   
    30    15    23 1   
    31    15    38 1   
    32    16    17 1   
    33    16    25 2   
    34    17    18 ar  
    35    17    22 ar  
    36    18    19 ar  
    37    18    39 1   
    38    19    20 ar  
    39    19    40 1   
    40    20    21 ar  
    41    20    41 1   
    42    21    22 ar  
    43    21    42 1   
    44    22    23 1   
    45    23    26 2   
@<TRIPOS>SUBSTRUCTURE
     1 UAJ         1 TEMP              0 ****  ****    0 ROOT
