@<TRIPOS>MOLECULE
UAJ
   42    45     1     0     0
SMALL
No Charge or Current Charge


@<TRIPOS>ATOM
      1 C01         29.2490   -11.3200    50.9170 ca         1 UAJ      -0.102000
      2 C02         29.6360   -10.8320    52.1760 ca         1 UAJ      -0.110500
      3 C03         28.8100   -11.0340    53.2950 ca         1 UAJ      -0.089000
      4 C04         27.5890   -11.7270    53.1660 ca         1 UAJ      -0.076300
      5 C05         27.2060   -12.2110    51.8970 ca         1 UAJ      -0.089000
      6 C06         28.0330   -12.0090    50.7780 ca         1 UAJ      -0.110500
      7 C07         26.6950   -11.9360    54.3920 c3         1 UAJ      -0.062100
      8 C08         26.1980   -13.3880    54.5120 ca         1 UAJ      -0.083300
      9 C09         27.0370   -14.3380    55.1330 ca         1 UAJ      -0.094000
     10 C10         26.6310   -15.6770    55.2660 ca         1 UAJ      -0.101000
     11 C11         25.3810   -16.0820    54.7760 ca         1 UAJ       0.122000
     12 C12         24.5390   -15.1510    54.1500 ca         1 UAJ      -0.101000
     13 C13         24.9430   -13.8110    54.0160 ca         1 UAJ      -0.094000
     14 C15         25.5670   -10.8720    54.4520 c          1 UAJ       0.605100
     15 C17         25.4130   -10.1010    55.7550 c5         1 UAJ      -0.399700
     16 C18         25.5280    -8.6320    55.3480 c          1 UAJ       0.606200
     17 C20         24.1250    -8.1520    55.2290 ca         1 UAJ      -0.149600
     18 C21         23.6780    -6.9060    54.7590 ca         1 UAJ      -0.050500
     19 C22         22.2920    -6.6480    54.7570 ca         1 UAJ      -0.096500
     20 C23         21.3830    -7.6230    55.2280 ca         1 UAJ      -0.096500
     21 C24         21.8520    -8.8640    55.7050 ca         1 UAJ      -0.050500
     22 C25         23.2360    -9.1050    55.6890 ca         1 UAJ      -0.149600
     23 C26         23.9550   -10.3180    56.1630 c          1 UAJ       0.606200
     24 O16         24.8330   -10.6850    53.4900 o          1 UAJ      -0.479100
     25 O19         26.5310    -7.9380    55.2880 o          1 UAJ      -0.486100
     26 O27         23.4860   -11.2010    56.8650 o          1 UAJ      -0.486100
     27 Cl1         24.8720   -17.7580    54.9400 cl         1 UAJ      -0.200000
     28 H011        29.8890   -11.1640    50.0510 ha         1 UAJ       0.113000
     29 H021        30.5770   -10.2970    52.2850 ha         1 UAJ       0.113500
     30 H031        29.1230   -10.6480    54.2630 ha         1 UAJ       0.115000
     31 H051        26.2650   -12.7420    51.7710 ha         1 UAJ       0.115000
     32 H061        27.7300   -12.3860    49.8040 ha         1 UAJ       0.113500
     33 H071        27.3100   -11.7710    55.2840 hc         1 UAJ       0.087700
     34 H091        28.0120   -14.0400    55.5130 ha         1 UAJ       0.125500
     35 H101        27.2850   -16.4000    55.7460 ha         1 UAJ       0.132500
     36 H121        23.5720   -15.4690    53.7660 ha         1 UAJ       0.132500
     37 H131        24.2710   -13.1190    53.5160 ha         1 UAJ       0.125500
     38 H171        26.1400   -10.4180    56.5050 hc         1 UAJ       0.123700
     39 H211        24.3840    -6.1560    54.4050 ha         1 UAJ       0.137000
     40 H221        21.9210    -5.6920    54.3950 ha         1 UAJ       0.122000
     41 H231        20.3160    -7.4130    55.2270 ha         1 UAJ       0.122000
     42 H241        21.1580    -9.6150    56.0770 ha         1 UAJ       0.137000
@<TRIPOS>BOND
     1     1     2 ar  
     2     1     6 ar  
     3     1    28 1   
     4     2     3 ar  
     5     2    29 1   
     6     3     4 ar  
     7     3    30 1   
     8     4     5 ar  
     9     4     7 1   
    10     5     6 ar  
    11     5    31 1   
    12     6    32 1   
    13     7     8 1   
    14     7    14 1   
    15     7    33 1   
    16     8     9 ar  
    17     8    13 ar  
    18     9    10 ar  
    19     9    34 1   
    20    10    11 ar  
    21    10    35 1   
    22    11    12 ar  
    23    11    27 1   
    24    12    13 ar  
    25    12    36 1   
    26    13    37 1   
    27    14    15 1   
    28    14    24 2   
    29    15    16 1   
    30    15    23 1   
    31    15    38 1   
    32    16    17 1   
    33    16    25 2   
    34    17    18 ar  
    35    17    22 ar  
    36    18    19 ar  
    37    18    39 1   
    38    19    20 ar  
    39    19    40 1   
    40    20    21 ar  
    41    20    41 1   
    42    21    22 ar  
    43    21    42 1   
    44    22    23 1   
    45    23    26 2   
@<TRIPOS>SUBSTRUCTURE
     1 UAJ         1 TEMP              0 ****  ****    0 ROOT
