@<TRIPOS>MOLECULE
UAK
   40    41     1     0     0
SMALL
No Charge or Current Charge


@<TRIPOS>ATOM
      1 C4         -11.7690   -26.2110     3.2100 c6         1 UAK       0.110500
      2 C14        -12.1650   -28.5590     3.9060 c6         1 UAK       0.110500
      3 C5         -13.8730   -27.3650     2.4000 c          1 UAK       0.659100
      4 C6         -15.8440   -28.7380     1.6600 c3         1 UAK       0.177000
      5 C11        -16.4290   -32.9810     0.8900 ca         1 UAK      -0.109000
      6 C7         -17.0330   -28.1010     2.4100 c3         1 UAK      -0.107100
      7 C8         -16.0560   -30.2270     1.3970 ca         1 UAK      -0.082300
      8 C9         -16.0350   -30.7200     0.0760 ca         1 UAK      -0.095000
      9 C10        -16.2220   -32.0900    -0.1760 ca         1 UAK      -0.112000
     10 C12        -16.4470   -32.5000     2.2100 ca         1 UAK      -0.112000
     11 C13        -16.2600   -31.1300     2.4630 ca         1 UAK      -0.095000
     12 N1         -12.6920   -27.3750     3.1700 n          1 UAK      -0.432800
     13 N2         -14.5920   -28.5320     2.3820 ns         1 UAK      -0.527900
     14 C3         -10.3890   -26.5860     2.6160 c6         1 UAK      -0.098400
     15 C1          -8.4230   -28.2340     2.7200 c3         1 UAK      -0.086100
     16 C2          -9.7850   -27.8210     3.3370 c6         1 UAK      -0.059700
     17 O1         -14.2370   -26.3780     1.7790 o          1 UAK      -0.637100
     18 C15        -10.7990   -28.9970     3.3260 c6         1 UAK      -0.098400
     19 H1         -11.6440   -25.8910     4.2540 h1         1 UAK       0.049450
     20 H2         -12.1830   -25.3570     2.6570 h1         1 UAK       0.049450
     21 H3         -12.0370   -28.2870     4.9640 h1         1 UAK       0.049450
     22 H4         -12.8580   -29.4090     3.8810 h1         1 UAK       0.049450
     23 H5         -15.7570   -28.2300     0.6900 h1         1 UAK       0.064700
     24 H7         -16.8980   -27.0170     2.5030 hc         1 UAK       0.043367
     25 H8         -17.9670   -28.2790     1.8640 hc         1 UAK       0.043367
     26 H9         -17.1380   -28.5190     3.4170 hc         1 UAK       0.043367
     27 H10        -15.8740   -30.0410    -0.7590 ha         1 UAK       0.110500
     28 H11        -16.2060   -32.4610    -1.1990 ha         1 UAK       0.109500
     29 H12        -16.6040   -33.1890     3.0370 ha         1 UAK       0.109500
     30 H13        -16.2720   -30.7720     3.4900 ha         1 UAK       0.110500
     31 H14        -14.2130   -29.3080     2.9040 hn         1 UAK       0.309500
     32 H15        -10.5020   -26.7950     1.5440 hc         1 UAK       0.049700
     33 H16         -9.7080   -25.7280     2.6990 hc         1 UAK       0.049700
     34 H17         -7.9860   -29.0840     3.2590 hc         1 UAK       0.034367
     35 H18         -8.5320   -28.5250     1.6690 hc         1 UAK       0.034367
     36 H19         -7.7020   -27.4090     2.7660 hc         1 UAK       0.034367
     37 H20         -9.5800   -27.5480     4.3820 hc         1 UAK       0.042700
     38 H21        -10.9410   -29.3620     2.2990 hc         1 UAK       0.049700
     39 H22        -10.4060   -29.8410     3.9080 hc         1 UAK       0.049700
     40 H6         -16.5730   -34.0410     0.6940 ha         1 UAK       0.110000
@<TRIPOS>BOND
     1     1    12 1   
     2     1    14 1   
     3     1    19 1   
     4     1    20 1   
     5     2    12 1   
     6     2    18 1   
     7     2    21 1   
     8     2    22 1   
     9     3    12 1   
    10     3    13 1   
    11     3    17 2   
    12     4     6 1   
    13     4     7 1   
    14     4    13 1   
    15     4    23 1   
    16     5     9 ar  
    17     5    10 ar  
    18     5    40 1   
    19     6    24 1   
    20     6    25 1   
    21     6    26 1   
    22     7     8 ar  
    23     7    11 ar  
    24     8     9 ar  
    25     8    27 1   
    26     9    28 1   
    27    10    11 ar  
    28    10    29 1   
    29    11    30 1   
    30    13    31 1   
    31    14    16 1   
    32    14    32 1   
    33    14    33 1   
    34    15    16 1   
    35    15    34 1   
    36    15    35 1   
    37    15    36 1   
    38    16    18 1   
    39    16    37 1   
    40    18    38 1   
    41    18    39 1   
@<TRIPOS>SUBSTRUCTURE
     1 UAK         1 TEMP              0 ****  ****    0 ROOT
