@<TRIPOS>MOLECULE
UAK
   40    41     1     0     0
SMALL
bcc


@<TRIPOS>ATOM
      1 C4         -11.6200   -26.6420     2.1290 c6         1 UAK       0.110500
      2 C14        -12.4150   -27.7040     4.1600 c6         1 UAK       0.110500
      3 C5         -13.8500   -27.6280     2.1060 c          1 UAK       0.793100
      4 C6         -16.0980   -28.5880     2.1670 c3         1 UAK       0.177000
      5 C11        -15.6180   -32.2650    -0.0340 ca         1 UAK      -0.127000
      6 C7         -17.1800   -28.8000     3.2210 c3         1 UAK      -0.107100
      7 C8         -15.8850   -29.8650     1.3800 ca         1 UAK      -0.082300
      8 C9         -16.6250   -30.0950     0.2240 ca         1 UAK      -0.113000
      9 C10        -16.4960   -31.2850    -0.4790 ca         1 UAK      -0.130000
     10 C12        -14.8750   -32.0430     1.1180 ca         1 UAK      -0.130000
     11 C13        -15.0100   -30.8530     1.8210 ca         1 UAK      -0.113000
     12 N1         -12.7290   -27.2890     2.8040 n          1 UAK      -0.499800
     13 N2         -14.8890   -28.1440     2.8240 ns         1 UAK      -0.594900
     14 C3         -10.4010   -27.5540     2.0760 c6         1 UAK      -0.098400
     15 C1          -8.8320   -29.0000     3.4220 c3         1 UAK      -0.086100
     16 C2         -10.0000   -28.0250     3.4710 c6         1 UAK      -0.059700
     17 O1         -13.9340   -27.4920     0.8880 o          1 UAK      -0.637100
     18 C15        -11.2090   -28.6390     4.1720 c6         1 UAK      -0.098400
     19 H1         -11.3670   -25.7270     2.6770 h1         1 UAK       0.049450
     20 H2         -11.9270   -26.3470     1.1300 h1         1 UAK       0.049450
     21 H3         -12.2060   -26.8170     4.7670 h1         1 UAK       0.049450
     22 H4         -13.2560   -28.2110     4.6250 h1         1 UAK       0.049450
     23 H5         -16.4520   -27.8190     1.4730 h1         1 UAK       0.064700
     24 H7         -17.3760   -27.8770     3.7700 hc         1 UAK       0.043367
     25 H8         -18.1090   -29.1130     2.7480 hc         1 UAK       0.043367
     26 H9         -16.8890   -29.5720     3.9360 hc         1 UAK       0.043367
     27 H10        -17.3060   -29.3310    -0.1340 ha         1 UAK       0.128500
     28 H11        -17.0760   -31.4440    -1.3790 ha         1 UAK       0.127500
     29 H12        -14.1860   -32.8000     1.4720 ha         1 UAK       0.127500
     30 H13        -14.4200   -30.6900     2.7150 ha         1 UAK       0.128500
     31 H14        -14.9490   -27.9760     3.8140 hn         1 UAK       0.309500
     32 H15        -10.6280   -28.4200     1.4440 hc         1 UAK       0.049700
     33 H16         -9.5710   -27.0220     1.6030 hc         1 UAK       0.049700
     34 H17         -8.5340   -29.3140     4.4240 hc         1 UAK       0.034367
     35 H18         -9.1000   -29.8960     2.8590 hc         1 UAK       0.034367
     36 H19         -7.9610   -28.5520     2.9400 hc         1 UAK       0.034367
     37 H20         -9.6920   -27.1420     4.0470 hc         1 UAK       0.042700
     38 H21        -11.4840   -29.5750     3.6740 hc         1 UAK       0.049700
     39 H22        -10.9620   -28.8880     5.2070 hc         1 UAK       0.049700
     40 H6         -15.5120   -33.1920    -0.5820 ha         1 UAK       0.128000
@<TRIPOS>BOND
     1     1    12 1   
     2     1    14 1   
     3     1    19 1   
     4     1    20 1   
     5     2    12 1   
     6     2    18 1   
     7     2    21 1   
     8     2    22 1   
     9     3    12 1   
    10     3    13 1   
    11     3    17 2   
    12     4     6 1   
    13     4     7 1   
    14     4    13 1   
    15     4    23 1   
    16     5     9 ar  
    17     5    10 ar  
    18     5    40 1   
    19     6    24 1   
    20     6    25 1   
    21     6    26 1   
    22     7     8 ar  
    23     7    11 ar  
    24     8     9 ar  
    25     8    27 1   
    26     9    28 1   
    27    10    11 ar  
    28    10    29 1   
    29    11    30 1   
    30    13    31 1   
    31    14    16 1   
    32    14    32 1   
    33    14    33 1   
    34    15    16 1   
    35    15    34 1   
    36    15    35 1   
    37    15    36 1   
    38    16    18 1   
    39    16    37 1   
    40    18    38 1   
    41    18    39 1   
@<TRIPOS>SUBSTRUCTURE
     1 UAK         1 TEMP              0 ****  ****    0 ROOT
