@<TRIPOS>MOLECULE
UAL
   16    15     1     0     0
SMALL
bcc


@<TRIPOS>ATOM
      1 C          104.6390     6.9020    24.9800 c          1 UAL       0.926800
      2 N          106.8810     6.5810    23.9360 nv         1 UAL      -0.813600
      3 O          103.6830     6.3960    25.5970 o          1 UAL      -0.826300
      4 C1         106.6900     2.4460    24.7130 c          1 UAL       0.767100
      5 N1         106.7900     3.8020    24.5830 ns         1 UAL      -0.488100
      6 N2         107.8340     1.7640    24.4270 nt         1 UAL      -0.687000
      7 O2         105.6460     1.8860    25.0210 o          1 UAL      -0.647100
      8 CA         105.7840     5.9850    24.5750 ce         1 UAL      -0.074200
      9 CB         105.7430     4.6770    24.8660 c2         1 UAL      -0.109400
     10 OXT        104.7700     8.0980    24.6440 o          1 UAL      -0.826300
     11 HN         107.1730     6.1010    23.0950 hn         1 UAL       0.356800
     12 HN2        107.8630     0.7970    24.7010 hn         1 UAL       0.290500
     13 HN2A       108.7250     2.2330    24.4170 hn         1 UAL       0.290500
     14 HB         104.8820     4.2490    25.3520 h4         1 UAL       0.183000
     15 H5         106.6510     7.5390    23.7090 hn         1 UAL       0.356800
     16 H6         107.6860     4.2040    24.3500 hn         1 UAL       0.299500
@<TRIPOS>BOND
     1     1     3 1   
     2     1     8 1   
     3     1    10 1   
     4     2     8 1   
     5     2    11 1   
     6     2    15 1   
     7     4     5 1   
     8     4     6 1   
     9     4     7 2   
    10     5     9 1   
    11     5    16 1   
    12     6    12 1   
    13     6    13 1   
    14     8     9 2   
    15     9    14 1   
@<TRIPOS>SUBSTRUCTURE
     1 UAL         1 TEMP              0 ****  ****    0 ROOT
