@<TRIPOS>MOLECULE
UAL
   16    15     1     0     0
SMALL
No Charge or Current Charge


@<TRIPOS>ATOM
      1 C          104.5670     6.9480    24.9450 c          1 UAL       0.716200
      2 N          106.8610     6.5860    23.9250 nv         1 UAL      -0.924000
      3 O          103.5910     6.4770    25.5130 o          1 UAL      -0.721000
      4 C1         106.7120     2.4110    24.8150 c          1 UAL       0.633100
      5 N1         106.7270     3.7650    24.5970 ns         1 UAL      -0.421100
      6 N2         107.8500     1.7930    24.4600 nt         1 UAL      -0.620000
      7 O2         105.7700     1.7990    25.2840 o          1 UAL      -0.647100
      8 CA         105.7450     6.0080    24.5800 ce         1 UAL      -0.074200
      9 CB         105.6910     4.6860    24.8790 c2         1 UAL      -0.159400
     10 OXT        104.6470     8.1350    24.6480 o          1 UAL      -0.721000
     11 HN         107.5280     6.0020    23.4280 hn         1 UAL       0.412000
     12 HN2        107.9240     0.7950    24.5860 hn         1 UAL       0.290500
     13 HN2A       108.6190     2.3180    24.0720 hn         1 UAL       0.290500
     14 HB         104.8230     4.2410    25.3770 h4         1 UAL       0.233000
     15 H5         106.8010     7.5670    23.6470 hn         1 UAL       0.412000
     16 H6         107.5860     4.1290    24.2100 hn         1 UAL       0.299500
@<TRIPOS>BOND
     1     1     3 1   
     2     1     8 1   
     3     1    10 1   
     4     2     8 1   
     5     2    11 1   
     6     2    15 1   
     7     4     5 1   
     8     4     6 1   
     9     4     7 2   
    10     5     9 1   
    11     5    16 1   
    12     6    12 1   
    13     6    13 1   
    14     8     9 2   
    15     9    14 1   
@<TRIPOS>SUBSTRUCTURE
     1 UAL         1 TEMP              0 ****  ****    0 ROOT
