@<TRIPOS>MOLECULE
UAM
   59    60     1     0     0
SMALL
abcg2


@<TRIPOS>ATOM
      1 CAO         -1.8680     0.0120     1.3340 c6         1 UAM      -0.079100
      2 CAW         -2.9530    -1.0010     1.1410 ca         1 UAM       0.006700
      3 CAM         -3.4580    -1.7570     2.1800 ca         1 UAM      -0.163000
      4 CAK         -4.4420    -2.7090     1.9200 ca         1 UAM      -0.031000
      5 CAL         -4.9160    -2.9260     0.6410 ca         1 UAM      -0.176000
      6 CAV         -4.4060    -2.1810    -0.4230 ca         1 UAM       0.231100
      7 OAH         -4.8660    -2.4300    -1.6470 oh         1 UAM      -0.536100
      8 CAX         -3.4330    -1.1970    -0.1630 ca         1 UAM      -0.318600
      9 CAU         -2.8950    -0.4020    -1.2670 c          1 UAM       0.700700
     10 OAG         -3.1210    -0.6530    -2.4390 o          1 UAM      -0.553000
     11 OAR         -2.1220     0.6330    -0.9910 os         1 UAM      -0.440100
     12 CBD         -2.0530     1.1480     0.3540 c6         1 UAM       0.177300
     13 CBC         -0.9370     2.1880     0.3820 c3         1 UAM       0.115700
     14 CAP         -1.2100     3.3570    -0.5640 c3         1 UAM      -0.087400
     15 CAY         -0.1790     4.4860    -0.5040 c3         1 UAM      -0.057700
     16 CAB         -0.5570     5.5700    -1.5080 c3         1 UAM      -0.092100
     17 CAA         -0.0410     5.0740     0.8970 c3         1 UAM      -0.092100
     18 NAQ          0.3530     1.5900     0.1070 ns         1 UAM      -0.484900
     19 CAT          1.2780     1.3290     1.0400 c          1 UAM       0.574100
     20 OAF          1.1450     1.5750     2.2310 o          1 UAM      -0.615100
     21 CBA          2.5650     0.6690     0.5460 c3         1 UAM       0.069300
     22 OAI          3.6720     1.2640     1.1650 oh         1 UAM      -0.629000
     23 CBB          2.4900    -0.8410     0.8350 c3         1 UAM       0.093300
     24 OAJ          1.3550    -1.4110     0.2210 oh         1 UAM      -0.658000
     25 CAZ          3.7860    -1.6040     0.5090 c3         1 UAM       0.146500
     26 NAD          3.7220    -3.0050     0.8930 n8         1 UAM      -0.989200
     27 CAN          4.1760    -1.5200    -0.9660 c3         1 UAM      -0.157400
     28 CAS          5.4960    -2.2260    -1.1990 c          1 UAM       0.625100
     29 OAE          6.5050    -1.9150    -0.5820 o          1 UAM      -0.602100
     30 NAC          5.4810    -3.1870    -2.1320 nt         1 UAM      -0.606000
     31 H1          -1.8810     0.4060     2.3510 hc         1 UAM       0.086200
     32 H2          -0.8960    -0.4640     1.1790 hc         1 UAM       0.086200
     33 H3          -3.0940    -1.6090     3.1880 ha         1 UAM       0.123000
     34 H4          -4.8410    -3.2990     2.7350 ha         1 UAM       0.119000
     35 H5          -5.6730    -3.6760     0.4510 ha         1 UAM       0.136000
     36 H6          -4.3660    -1.8750    -2.2810 ho         1 UAM       0.514000
     37 H7          -2.9980     1.6600     0.5650 h1         1 UAM       0.063700
     38 H8          -0.9110     2.5630     1.4070 h1         1 UAM       0.092700
     39 H9          -1.2740     2.9900    -1.5930 hc         1 UAM       0.055700
     40 H10         -2.1980     3.7600    -0.3180 hc         1 UAM       0.055700
     41 H11          0.7940     4.0800    -0.8010 hc         1 UAM       0.046700
     42 H12         -1.5150     6.0280    -1.2500 hc         1 UAM       0.036533
     43 H13          0.1920     6.3630    -1.5360 hc         1 UAM       0.036533
     44 H14         -0.6470     5.1640    -2.5180 hc         1 UAM       0.036533
     45 H15          0.3400     4.3480     1.6160 hc         1 UAM       0.036533
     46 H16          0.6510     5.9180     0.8970 hc         1 UAM       0.036533
     47 H17         -1.0030     5.4360     1.2680 hc         1 UAM       0.036533
     48 H18          0.5680     1.3740    -0.8540 hn         1 UAM       0.322500
     49 H19          2.6850     0.8330    -0.5300 h1         1 UAM       0.076700
     50 H20          3.5140     1.2680     2.1170 ho         1 UAM       0.467000
     51 H21          2.3220    -0.9600     1.9130 h1         1 UAM       0.085700
     52 H22          1.4050    -1.2910    -0.7340 ho         1 UAM       0.444000
     53 H23          4.5860    -1.1430     1.0920 h1         1 UAM       0.101700
     54 H24          3.5990    -3.0810     1.8950 hn         1 UAM       0.401000
     55 H25          2.9040    -3.4360     0.4790 hn         1 UAM       0.401000
     56 H27          3.3940    -1.9440    -1.6020 hc         1 UAM       0.053700
     57 H28          4.3050    -0.4790    -1.2740 hc         1 UAM       0.053700
     58 H29          4.6400    -3.4410    -2.6200 hn         1 UAM       0.311500
     59 H30          6.3160    -3.7110    -2.3410 hn         1 UAM       0.311500
@<TRIPOS>BOND
     1     1     2 1   
     2     1    12 1   
     3     1    31 1   
     4     1    32 1   
     5     2     3 ar  
     6     2     8 ar  
     7     3     4 ar  
     8     3    33 1   
     9     4     5 ar  
    10     4    34 1   
    11     5     6 ar  
    12     5    35 1   
    13     6     7 1   
    14     6     8 ar  
    15     7    36 1   
    16     8     9 1   
    17     9    10 2   
    18     9    11 1   
    19    11    12 1   
    20    12    13 1   
    21    12    37 1   
    22    13    14 1   
    23    13    18 1   
    24    13    38 1   
    25    14    15 1   
    26    14    39 1   
    27    14    40 1   
    28    15    16 1   
    29    15    17 1   
    30    15    41 1   
    31    16    42 1   
    32    16    43 1   
    33    16    44 1   
    34    17    45 1   
    35    17    46 1   
    36    17    47 1   
    37    18    19 1   
    38    18    48 1   
    39    19    20 2   
    40    19    21 1   
    41    21    22 1   
    42    21    23 1   
    43    21    49 1   
    44    22    50 1   
    45    23    24 1   
    46    23    25 1   
    47    23    51 1   
    48    24    52 1   
    49    25    26 1   
    50    25    27 1   
    51    25    53 1   
    52    26    54 1   
    53    26    55 1   
    54    27    28 1   
    55    27    56 1   
    56    27    57 1   
    57    28    29 2   
    58    28    30 1   
    59    30    58 1   
    60    30    59 1   
@<TRIPOS>SUBSTRUCTURE
     1 UAM         1 TEMP              0 ****  ****    0 ROOT
