@<TRIPOS>MOLECULE
UAM
   59    60     1     0     0
SMALL
No Charge or Current Charge


@<TRIPOS>ATOM
      1 CAO         -2.0460     0.0000     1.3620 c6         1 UAM      -0.079100
      2 CAW         -3.1540    -1.0110     1.1360 ca         1 UAM       0.006700
      3 CAM         -3.7010    -1.7230     2.2180 ca         1 UAM      -0.163000
      4 CAK         -4.7230    -2.6590     2.0020 ca         1 UAM      -0.031000
      5 CAL         -5.1910    -2.8870     0.6990 ca         1 UAM      -0.176000
      6 CAV         -4.6420    -2.1860    -0.3840 ca         1 UAM       0.231100
      7 OAH         -5.1110    -2.4490    -1.6340 oh         1 UAM      -0.536100
      8 CAX         -3.6230    -1.2320    -0.1760 ca         1 UAM      -0.318600
      9 CAU         -3.0080    -0.4760    -1.3300 c          1 UAM       0.700700
     10 OAG         -3.1870    -0.8150    -2.4920 o          1 UAM      -0.553000
     11 OAR         -2.2050     0.5890    -1.0120 os         1 UAM      -0.440100
     12 CBD         -2.1630     1.1320     0.3250 c6         1 UAM       0.177300
     13 CBC         -1.0020     2.1790     0.3960 c3         1 UAM       0.115700
     14 CAP         -1.2320     3.4140    -0.5170 c3         1 UAM      -0.087400
     15 CAY         -0.1490     4.5290    -0.4380 c3         1 UAM      -0.057700
     16 CAB         -0.4270     5.6390    -1.4770 c3         1 UAM      -0.092100
     17 CAA         -0.0090     5.1310     0.9810 c3         1 UAM      -0.092100
     18 NAQ          0.3040     1.5650     0.1100 ns         1 UAM      -0.484900
     19 CAT          1.2630     1.2620     1.0550 c          1 UAM       0.574100
     20 OAF          1.1160     1.5340     2.2410 o          1 UAM      -0.615100
     21 CBA          2.5740     0.6220     0.5100 c3         1 UAM       0.069300
     22 OAI          3.7380     1.2540     1.1030 oh         1 UAM      -0.629000
     23 CBB          2.5970    -0.9120     0.7870 c3         1 UAM       0.093300
     24 OAJ          1.4710    -1.5480     0.1460 oh         1 UAM      -0.658000
     25 CAZ          3.9270    -1.6430     0.3830 c3         1 UAM       0.146500
     26 NAD          3.8470    -3.0730     0.7630 n8         1 UAM      -0.989200
     27 CAN          4.2850    -1.5430    -1.1220 c3         1 UAM      -0.157400
     28 CAS          5.7210    -2.0040    -1.3860 c          1 UAM       0.625100
     29 OAE          6.6990    -1.3180    -1.1380 o          1 UAM      -0.602100
     30 NAC          5.8690    -3.2160    -1.9640 nt         1 UAM      -0.606000
     31 H1          -2.1030     0.4180     2.3770 hc         1 UAM       0.086200
     32 H2          -1.0740    -0.5030     1.2790 hc         1 UAM       0.086200
     33 H3          -3.3350    -1.5520     3.2270 ha         1 UAM       0.123000
     34 H4          -5.1480    -3.2090     2.8400 ha         1 UAM       0.119000
     35 H5          -5.9780    -3.6170     0.5270 ha         1 UAM       0.136000
     36 H6          -4.5380    -1.9410    -2.2600 ho         1 UAM       0.514000
     37 H7          -3.1110     1.6610     0.5050 h1         1 UAM       0.063700
     38 H8          -0.9970     2.5440     1.4320 h1         1 UAM       0.092700
     39 H9          -1.3030     3.0700    -1.5560 hc         1 UAM       0.055700
     40 H10         -2.2080     3.8530    -0.2730 hc         1 UAM       0.055700
     41 H11          0.8200     4.0860    -0.7030 hc         1 UAM       0.046700
     42 H12         -1.3820     6.1380    -1.2710 hc         1 UAM       0.036533
     43 H13          0.3660     6.3970    -1.4580 hc         1 UAM       0.036533
     44 H14         -0.4690     5.2220    -2.4900 hc         1 UAM       0.036533
     45 H15          0.3280     4.3770     1.7010 hc         1 UAM       0.036533
     46 H16          0.7300     5.9420     0.9850 hc         1 UAM       0.036533
     47 H17         -0.9660     5.5400     1.3280 hc         1 UAM       0.036533
     48 H18          0.4980     1.2920    -0.8460 hn         1 UAM       0.322500
     49 H19          2.5830     0.7850    -0.5750 h1         1 UAM       0.076700
     50 H20          3.4800     1.5360     2.0120 ho         1 UAM       0.467000
     51 H21          2.4930    -1.0280     1.8760 h1         1 UAM       0.085700
     52 H22          1.7230    -1.7290    -0.7850 ho         1 UAM       0.444000
     53 H23          4.7530    -1.1810     0.9480 h1         1 UAM       0.101700
     54 H24          3.9500    -3.1580     1.7810 hn         1 UAM       0.401000
     55 H25          2.8800    -3.3830     0.6080 hn         1 UAM       0.401000
     56 H27          3.5830    -2.1560    -1.7010 hc         1 UAM       0.053700
     57 H28          4.2160    -0.4980    -1.4390 hc         1 UAM       0.053700
     58 H29          5.0570    -3.7860    -2.1440 hn         1 UAM       0.311500
     59 H30          6.7960    -3.5600    -2.1600 hn         1 UAM       0.311500
@<TRIPOS>BOND
     1     1     2 1   
     2     1    12 1   
     3     1    31 1   
     4     1    32 1   
     5     2     3 ar  
     6     2     8 ar  
     7     3     4 ar  
     8     3    33 1   
     9     4     5 ar  
    10     4    34 1   
    11     5     6 ar  
    12     5    35 1   
    13     6     7 1   
    14     6     8 ar  
    15     7    36 1   
    16     8     9 1   
    17     9    10 2   
    18     9    11 1   
    19    11    12 1   
    20    12    13 1   
    21    12    37 1   
    22    13    14 1   
    23    13    18 1   
    24    13    38 1   
    25    14    15 1   
    26    14    39 1   
    27    14    40 1   
    28    15    16 1   
    29    15    17 1   
    30    15    41 1   
    31    16    42 1   
    32    16    43 1   
    33    16    44 1   
    34    17    45 1   
    35    17    46 1   
    36    17    47 1   
    37    18    19 1   
    38    18    48 1   
    39    19    20 2   
    40    19    21 1   
    41    21    22 1   
    42    21    23 1   
    43    21    49 1   
    44    22    50 1   
    45    23    24 1   
    46    23    25 1   
    47    23    51 1   
    48    24    52 1   
    49    25    26 1   
    50    25    27 1   
    51    25    53 1   
    52    26    54 1   
    53    26    55 1   
    54    27    28 1   
    55    27    56 1   
    56    27    57 1   
    57    28    29 2   
    58    28    30 1   
    59    30    58 1   
    60    30    59 1   
@<TRIPOS>SUBSTRUCTURE
     1 UAM         1 TEMP              0 ****  ****    0 ROOT
