@<TRIPOS>MOLECULE
UAN
   22    23     1     0     0
SMALL
abcg2


@<TRIPOS>ATOM
      1 O           -0.1790    -3.0650     0.0250 o          1 UAN      -0.519000
      2 C2          -0.0290    -1.8530     0.0190 c          1 UAN       0.522500
      3 N1           1.2560    -1.2970     0.0250 ns         1 UAN      -0.461400
      4 C3          -1.0200    -0.8300     0.0050 cc         1 UAN       0.086500
      5 N4          -2.3880    -0.9090    -0.0090 nc         1 UAN      -0.592000
      6 C5          -2.7820     0.3290    -0.0190 cd         1 UAN       0.392400
      7 N3          -1.7480     1.2250    -0.0140 na         1 UAN      -0.173500
      8 C6          -1.8360     2.6670    -0.0110 c3         1 UAN       0.070900
      9 C4          -0.6080     0.4910     0.0020 cd         1 UAN       0.139400
     10 N2           0.6420     0.9760     0.0110 nd         1 UAN      -0.708100
     11 C1           1.5580     0.0390     0.0190 cc         1 UAN       0.740800
     12 N            2.8530     0.3700     0.0160 nu         1 UAN      -0.912400
     13 C            3.2940     1.7440     0.0420 c3         1 UAN       0.233100
     14 H1           2.0170    -1.9640     0.0370 hn         1 UAN       0.319500
     15 H5          -3.8090     0.6630    -0.0330 h5         1 UAN       0.057100
     16 H61C        -1.5010     3.0740     0.9410 h1         1 UAN       0.054367
     17 H62C        -1.2250     3.0830    -0.8090 h1         1 UAN       0.054367
     18 H63C        -2.8700     2.9580    -0.1750 h1         1 UAN       0.054367
     19 H            3.5490    -0.3540     0.0550 hn         1 UAN       0.501000
     20 HC1          2.9150     2.3010    -0.8140 h1         1 UAN       0.046367
     21 HC2          2.9770     2.2550     0.9520 h1         1 UAN       0.046367
     22 HC3          4.3800     1.7480     0.0030 h1         1 UAN       0.046367
@<TRIPOS>BOND
     1     1     2 2   
     2     2     3 1   
     3     2     4 1   
     4     3    11 1   
     5     3    14 1   
     6     4     5 1   
     7     4     9 2   
     8     5     6 2   
     9     6     7 1   
    10     6    15 1   
    11     7     8 1   
    12     7     9 1   
    13     8    16 1   
    14     8    17 1   
    15     8    18 1   
    16     9    10 1   
    17    10    11 2   
    18    11    12 1   
    19    12    13 1   
    20    12    19 1   
    21    13    20 1   
    22    13    21 1   
    23    13    22 1   
@<TRIPOS>SUBSTRUCTURE
     1 UAN         1 TEMP              0 ****  ****    0 ROOT
