@<TRIPOS>MOLECULE
UAN
   22    23     1     0     0
SMALL
No Charge or Current Charge


@<TRIPOS>ATOM
      1 O           -0.1600    -3.0520     0.0090 o          1 UAN      -0.519000
      2 C2           0.0350    -1.8440     0.0110 c          1 UAN       0.522500
      3 N1           1.2890    -1.3180     0.0270 ns         1 UAN      -0.461400
      4 C3          -1.0050    -0.7920    -0.0030 cc         1 UAN       0.086500
      5 N4          -2.3750    -0.9310    -0.0210 nc         1 UAN      -0.592000
      6 C5          -2.8540     0.3150    -0.0280 cd         1 UAN       0.392400
      7 N3          -1.8200     1.2490    -0.0150 na         1 UAN      -0.173500
      8 C6          -1.9560     2.7120    -0.0170 c3         1 UAN       0.070900
      9 C4          -0.6500     0.5290     0.0010 cd         1 UAN       0.139400
     10 N2           0.6660     0.9870     0.0170 nd         1 UAN      -0.708100
     11 C1           1.5640     0.0120     0.0300 cc         1 UAN       0.740800
     12 N            2.8720     0.3570     0.0460 nu         1 UAN      -0.912400
     13 C            3.4220     1.7260     0.0530 c3         1 UAN       0.233100
     14 H1           2.0490    -1.9780     0.0370 hn         1 UAN       0.319500
     15 H5          -3.8970     0.6080    -0.0410 h5         1 UAN       0.057100
     16 H61C        -1.4840     3.1260     0.8820 h1         1 UAN       0.054367
     17 H62C        -1.4630     3.1250    -0.9060 h1         1 UAN       0.054367
     18 H63C        -3.0170     2.9910    -0.0300 h1         1 UAN       0.054367
     19 H            3.5260    -0.4220     0.0550 hn         1 UAN       0.501000
     20 HC1          3.1030     2.2750    -0.8430 h1         1 UAN       0.046367
     21 HC2          3.0800     2.2760     0.9390 h1         1 UAN       0.046367
     22 HC3          4.5200     1.6990     0.0670 h1         1 UAN       0.046367
@<TRIPOS>BOND
     1     1     2 2   
     2     2     3 1   
     3     2     4 1   
     4     3    11 1   
     5     3    14 1   
     6     4     5 1   
     7     4     9 2   
     8     5     6 2   
     9     6     7 1   
    10     6    15 1   
    11     7     8 1   
    12     7     9 1   
    13     8    16 1   
    14     8    17 1   
    15     8    18 1   
    16     9    10 1   
    17    10    11 2   
    18    11    12 1   
    19    12    13 1   
    20    12    19 1   
    21    13    20 1   
    22    13    21 1   
    23    13    22 1   
@<TRIPOS>SUBSTRUCTURE
     1 UAN         1 TEMP              0 ****  ****    0 ROOT
