@<TRIPOS>MOLECULE
UAP
   22    22     1     0     0
SMALL
abcg2


@<TRIPOS>ATOM
      1 S           -2.9670    -0.0780    -0.2890 s6         1 UAP       1.510300
      2 C1           0.4230     1.0370     0.6660 c6         1 UAP       0.373300
      3 O1          -0.2430     2.2020     0.3890 oh         1 UAP      -0.607000
      4 C2          -0.3500    -0.1590     0.1170 c6         1 UAP       0.214300
      5 O2          -1.6430    -0.1590     0.6890 os         1 UAP      -0.597700
      6 C3           0.3900    -1.4290     0.5080 c6         1 UAP       0.205500
      7 O3          -0.0990    -2.4880    -0.2850 oh         1 UAP      -0.634000
      8 C4           1.8670    -1.2290     0.3240 c2         1 UAP      -0.427200
      9 C5           2.4260    -0.0410     0.0880 ce         1 UAP       0.047900
     10 O5           1.7020     1.1030     0.0520 os         1 UAP      -0.366100
     11 C6           3.9160     0.1590    -0.1720 c          1 UAP       0.726200
     12 O1S         -3.0590    -1.3840    -0.9410 o          1 UAP      -0.717533
     13 O2S         -4.0060     0.1790     0.7080 o          1 UAP      -0.717533
     14 O3S         -2.7250     1.0240    -1.2200 o          1 UAP      -0.717533
     15 O61          4.2800     1.3270    -0.3820 o          1 UAP      -0.717000
     16 O62          4.6170    -0.8690    -0.1500 o          1 UAP      -0.717000
     17 H1           0.5780     0.9000     1.7500 h2         1 UAP       0.009700
     18 H2          -0.3830    -0.0820    -0.9770 h1         1 UAP       0.082700
     19 H3           0.1810    -1.6270     1.5700 h1         1 UAP       0.018700
     20 HO3          0.2900    -3.3060     0.0410 ho         1 UAP       0.414000
     21 H4           2.5120    -2.0970     0.3750 ha         1 UAP       0.187000
     22 HO1          0.0500     2.8880     0.9970 ho         1 UAP       0.427000
@<TRIPOS>BOND
     1     1     5 1   
     2     1    12 1   
     3     1    13 1   
     4     1    14 1   
     5     2     3 1   
     6     2     4 1   
     7     2    10 1   
     8     2    17 1   
     9     3    22 1   
    10     4     5 1   
    11     4     6 1   
    12     4    18 1   
    13     6     7 1   
    14     6     8 1   
    15     6    19 1   
    16     7    20 1   
    17     8     9 2   
    18     8    21 1   
    19     9    10 1   
    20     9    11 1   
    21    11    15 1   
    22    11    16 1   
@<TRIPOS>SUBSTRUCTURE
     1 UAP         1 TEMP              0 ****  ****    0 ROOT
