@<TRIPOS>MOLECULE
UAP
   22    22     1     0     0
SMALL
No Charge or Current Charge


@<TRIPOS>ATOM
      1 S           -3.0350    -0.0910    -0.4120 s6         1 UAP       1.510300
      2 C1           0.3580     1.0310     0.8240 c6         1 UAP       0.373300
      3 O1          -0.2600     2.3010     0.6250 oh         1 UAP      -0.607000
      4 C2          -0.4330    -0.1560     0.1760 c6         1 UAP       0.214300
      5 O2          -1.8030    -0.2410     0.6660 os         1 UAP      -0.597700
      6 C3           0.3920    -1.4230     0.5750 c6         1 UAP       0.205500
      7 O3          -0.0730    -2.6110    -0.0680 oh         1 UAP      -0.634000
      8 C4           1.8560    -1.2460     0.2360 c2         1 UAP      -0.427200
      9 C5           2.4330    -0.0210     0.0890 ce         1 UAP       0.047900
     10 O5           1.6840     1.1410     0.2730 os         1 UAP      -0.366100
     11 C6           3.9180     0.1750    -0.2700 c          1 UAP       0.726200
     12 O1S         -3.0190    -1.3580    -1.1570 o          1 UAP      -0.717533
     13 O2S         -4.2200     0.0910     0.4390 o          1 UAP      -0.717533
     14 O3S         -2.6840     1.0830    -1.2230 o          1 UAP      -0.717533
     15 O61          4.3590     1.3150    -0.3770 o          1 UAP      -0.717000
     16 O62          4.6240    -0.8130    -0.4380 o          1 UAP      -0.717000
     17 H1           0.4450     0.8460     1.9050 h2         1 UAP       0.009700
     18 H2          -0.4110    -0.0460    -0.9180 h1         1 UAP       0.082700
     19 H3           0.3130    -1.5500     1.6650 h1         1 UAP       0.018700
     20 HO3          0.4180    -3.3530     0.3400 ho         1 UAP       0.414000
     21 H4           2.4450    -2.1540     0.1020 ha         1 UAP       0.187000
     22 HO1          0.4490     2.9510     0.8020 ho         1 UAP       0.427000
@<TRIPOS>BOND
     1     1     5 1   
     2     1    12 1   
     3     1    13 1   
     4     1    14 1   
     5     2     3 1   
     6     2     4 1   
     7     2    10 1   
     8     2    17 1   
     9     3    22 1   
    10     4     5 1   
    11     4     6 1   
    12     4    18 1   
    13     6     7 1   
    14     6     8 1   
    15     6    19 1   
    16     7    20 1   
    17     8     9 2   
    18     8    21 1   
    19     9    10 1   
    20     9    11 1   
    21    11    15 1   
    22    11    16 1   
@<TRIPOS>SUBSTRUCTURE
     1 UAP         1 TEMP              0 ****  ****    0 ROOT
