@<TRIPOS>MOLECULE
UAQ
   34    35     1     0     0
SMALL
abcg2


@<TRIPOS>ATOM
      1 C4         -10.9910   -28.1070     1.5910 c6         1 UAQ       0.109500
      2 C5         -13.3960   -28.0250     1.9670 c          1 UAQ       0.655100
      3 C6         -15.7970   -28.2730     2.2960 c3         1 UAQ       0.080700
      4 C11        -11.8300   -28.6980     3.8040 c6         1 UAQ       0.109500
      5 C7         -16.1900   -29.4420     1.4520 cc         1 UAQ       0.102300
      6 C8         -15.5450   -30.5750     1.0840 cd         1 UAQ      -0.180000
      7 C9         -16.4710   -31.3200     0.2870 cd         1 UAQ      -0.183000
      8 C10        -17.6010   -30.5800     0.2370 cc         1 UAQ       0.120900
      9 C12        -10.7480   -27.8410     4.4520 c6         1 UAQ      -0.090900
     10 N1         -12.1430   -28.2190     2.4690 n          1 UAQ      -0.431800
     11 N2         -14.4460   -28.3690     2.7760 ns         1 UAQ      -0.509900
     12 C3          -9.9100   -27.2270     2.1990 c6         1 UAQ      -0.090900
     13 C1          -8.4520   -26.8300     4.2220 c3         1 UAQ      -0.086100
     14 C2          -9.5030   -27.7250     3.5810 c6         1 UAQ      -0.061700
     15 O1         -13.5910   -27.5350     0.8590 o          1 UAQ      -0.631100
     16 O2         -17.4390   -29.4380     0.9420 os         1 UAQ      -0.240000
     17 H1         -11.3120   -27.7140     0.6310 h1         1 UAQ       0.047200
     18 H2         -10.5810   -29.1100     1.4130 h1         1 UAQ       0.047200
     19 H3         -15.9250   -27.3420     1.7410 h1         1 UAQ       0.076200
     20 H4         -16.4590   -28.2050     3.1630 h1         1 UAQ       0.076200
     21 H5         -12.7080   -28.6710     4.4440 h1         1 UAQ       0.047200
     22 H6         -11.4960   -29.7410     3.7560 h1         1 UAQ       0.047200
     23 H7         -14.5370   -30.8530     1.3450 ha         1 UAQ       0.137000
     24 H8         -16.3100   -32.2760    -0.1830 ha         1 UAQ       0.140000
     25 H9         -18.5570   -30.7240    -0.2400 h4         1 UAQ       0.052100
     26 H10        -10.4980   -28.2750     5.4230 hc         1 UAQ       0.050450
     27 H11        -11.1530   -26.8410     4.6420 hc         1 UAQ       0.050450
     28 H12        -14.3040   -29.0170     3.5310 hn         1 UAQ       0.305500
     29 H13         -9.0460   -27.2150     1.5290 hc         1 UAQ       0.050450
     30 H14        -10.2750   -26.1970     2.2730 hc         1 UAQ       0.050450
     31 H15         -8.1500   -27.2100     5.1990 hc         1 UAQ       0.034700
     32 H16         -7.5580   -26.7620     3.6000 hc         1 UAQ       0.034700
     33 H17         -8.8370   -25.8170     4.3630 hc         1 UAQ       0.034700
     34 H18         -9.0780   -28.7310     3.4650 hc         1 UAQ       0.044700
@<TRIPOS>BOND
     1     1    10 1   
     2     1    12 1   
     3     1    17 1   
     4     1    18 1   
     5     2    10 1   
     6     2    11 1   
     7     2    15 2   
     8     3     5 1   
     9     3    11 1   
    10     3    19 1   
    11     3    20 1   
    12     4     9 1   
    13     4    10 1   
    14     4    21 1   
    15     4    22 1   
    16     5     6 2   
    17     5    16 1   
    18     6     7 1   
    19     6    23 1   
    20     7     8 2   
    21     7    24 1   
    22     8    16 1   
    23     8    25 1   
    24     9    14 1   
    25     9    26 1   
    26     9    27 1   
    27    11    28 1   
    28    12    14 1   
    29    12    29 1   
    30    12    30 1   
    31    13    14 1   
    32    13    31 1   
    33    13    32 1   
    34    13    33 1   
    35    14    34 1   
@<TRIPOS>SUBSTRUCTURE
     1 UAQ         1 TEMP              0 ****  ****    0 ROOT
