@<TRIPOS>MOLECULE
UAQ
   34    35     1     0     0
SMALL
No Charge or Current Charge


@<TRIPOS>ATOM
      1 C4         -11.1320   -27.4240     1.5500 c6         1 UAQ       0.109500
      2 C5         -13.5950   -27.7250     1.8500 c          1 UAQ       0.655100
      3 C6         -16.0070   -28.3360     2.2350 c3         1 UAQ       0.080700
      4 C11        -12.0320   -28.2730     3.7730 c6         1 UAQ       0.109500
      5 C7         -16.2420   -29.6180     1.4780 cc         1 UAQ       0.102300
      6 C8         -15.6430   -30.8450     1.5740 cd         1 UAQ      -0.180000
      7 C9         -16.2630   -31.6820     0.6260 cd         1 UAQ      -0.183000
      8 C10        -17.2170   -30.9350    -0.0100 cc         1 UAQ       0.120900
      9 C12        -10.7110   -27.8330     4.4450 c6         1 UAQ      -0.090900
     10 N1         -12.3140   -27.6580     2.4360 n          1 UAQ      -0.431800
     11 N2         -14.6140   -28.1590     2.6640 ns         1 UAQ      -0.509900
     12 C3          -9.8340   -26.9910     2.2680 c6         1 UAQ      -0.090900
     13 C1          -8.1890   -27.4930     4.1640 c3         1 UAQ      -0.086100
     14 C2          -9.5180   -27.8980     3.4720 c6         1 UAQ      -0.061700
     15 O1         -13.7960   -27.4130     0.6860 o          1 UAQ      -0.631100
     16 O2         -17.2190   -29.6580     0.5070 os         1 UAQ      -0.240000
     17 H1         -11.3790   -26.6580     0.8010 h1         1 UAQ       0.047200
     18 H2         -10.9330   -28.3550     1.0000 h1         1 UAQ       0.047200
     19 H3         -16.3000   -27.4850     1.6040 h1         1 UAQ       0.076200
     20 H4         -16.6530   -28.3270     3.1230 h1         1 UAQ       0.076200
     21 H5         -12.8470   -28.0420     4.4730 h1         1 UAQ       0.047200
     22 H6         -12.0140   -29.3660     3.6460 h1         1 UAQ       0.047200
     23 H7         -14.8410   -31.1140     2.2550 ha         1 UAQ       0.137000
     24 H8         -16.0340   -32.7250     0.4290 ha         1 UAQ       0.140000
     25 H9         -17.9220   -31.1690    -0.7970 h4         1 UAQ       0.052100
     26 H10        -10.5210   -28.4660     5.3230 hc         1 UAQ       0.050450
     27 H11        -10.8240   -26.8070     4.8230 hc         1 UAQ       0.050450
     28 H12        -14.3680   -28.3900     3.6170 hn         1 UAQ       0.305500
     29 H13         -9.0010   -27.0030     1.5520 hc         1 UAQ       0.050450
     30 H14         -9.9380   -25.9490     2.6040 hc         1 UAQ       0.050450
     31 H15         -7.9670   -28.1530     5.0110 hc         1 UAQ       0.034700
     32 H16         -7.3450   -27.5560     3.4670 hc         1 UAQ       0.034700
     33 H17         -8.2320   -26.4650     4.5440 hc         1 UAQ       0.034700
     34 H18         -9.3900   -28.9330     3.1230 hc         1 UAQ       0.044700
@<TRIPOS>BOND
     1     1    10 1   
     2     1    12 1   
     3     1    17 1   
     4     1    18 1   
     5     2    10 1   
     6     2    11 1   
     7     2    15 2   
     8     3     5 1   
     9     3    11 1   
    10     3    19 1   
    11     3    20 1   
    12     4     9 1   
    13     4    10 1   
    14     4    21 1   
    15     4    22 1   
    16     5     6 2   
    17     5    16 1   
    18     6     7 1   
    19     6    23 1   
    20     7     8 2   
    21     7    24 1   
    22     8    16 1   
    23     8    25 1   
    24     9    14 1   
    25     9    26 1   
    26     9    27 1   
    27    11    28 1   
    28    12    14 1   
    29    12    29 1   
    30    12    30 1   
    31    13    14 1   
    32    13    31 1   
    33    13    32 1   
    34    13    33 1   
    35    14    34 1   
@<TRIPOS>SUBSTRUCTURE
     1 UAQ         1 TEMP              0 ****  ****    0 ROOT
