@<TRIPOS>MOLECULE
UAS
   27    29     1     0     0
SMALL
No Charge or Current Charge


@<TRIPOS>ATOM
      1 C10        166.7510    70.5360    49.5610 ca         1 UAS      -0.054000
      2 C13        165.5840    68.3370    53.2420 ca         1 UAS      -0.092000
      3 C15        164.2370    67.1750    54.9040 ca         1 UAS      -0.101000
      4 C17        165.0840    65.9780    52.9610 ca         1 UAS      -0.092000
      5 C02        165.9410    68.1410    50.1550 c          1 UAS       0.590700
      6 C03        166.5000    67.1200    51.1780 c5         1 UAS      -0.226400
      7 C04        167.9690    67.5630    51.3960 c          1 UAS       0.590700
      8 C06        168.0410    68.9550    50.8760 ca         1 UAS      -0.156600
      9 C07        169.1040    69.8650    51.0000 ca         1 UAS      -0.054000
     10 C08        168.9730    71.1340    50.4000 ca         1 UAS      -0.099000
     11 C09        167.8020    71.4680    49.6840 ca         1 UAS      -0.099000
     12 C11        166.8970    69.2810    50.1760 ca         1 UAS      -0.156600
     13 C12        165.7070    67.1500    52.4880 ca         1 UAS      -0.060300
     14 C14        164.8530    68.3490    54.4430 ca         1 UAS      -0.106500
     15 C16        164.3520    65.9890    54.1620 ca         1 UAS      -0.106500
     16 O01        165.0020    68.0140    49.3820 o          1 UAS      -0.481100
     17 O05        168.9210    66.8970    51.7790 o          1 UAS      -0.481100
     18 H101       165.8510    70.7840    49.0020 ha         1 UAS       0.136000
     19 H151       163.6710    67.1840    55.8330 ha         1 UAS       0.114000
     20 H171       165.1640    65.0500    52.3980 ha         1 UAS       0.112500
     21 H031       166.4770    66.1150    50.7480 hc         1 UAS       0.103700
     22 H071       170.0080    69.5980    51.5450 ha         1 UAS       0.136000
     23 H081       169.7810    71.8580    50.4850 ha         1 UAS       0.121000
     24 H091       167.7120    72.4480    49.2190 ha         1 UAS       0.121000
     25 H141       164.7650    69.2700    55.0160 ha         1 UAS       0.114500
     26 H161       163.8760    65.0780    54.5160 ha         1 UAS       0.114500
     27 H131       166.0530    69.2590    52.9050 ha         1 UAS       0.112500
@<TRIPOS>BOND
     1     1    11 ar  
     2     1    12 ar  
     3     1    18 1   
     4     2    13 ar  
     5     2    14 ar  
     6     2    27 1   
     7     3    14 ar  
     8     3    15 ar  
     9     3    19 1   
    10     4    13 ar  
    11     4    15 ar  
    12     4    20 1   
    13     5     6 1   
    14     5    12 1   
    15     5    16 2   
    16     6     7 1   
    17     6    13 1   
    18     6    21 1   
    19     7     8 1   
    20     7    17 2   
    21     8     9 ar  
    22     8    12 ar  
    23     9    10 ar  
    24     9    22 1   
    25    10    11 ar  
    26    10    23 1   
    27    11    24 1   
    28    14    25 1   
    29    15    26 1   
@<TRIPOS>SUBSTRUCTURE
     1 UAS         1 TEMP              0 ****  ****    0 ROOT
