@<TRIPOS>MOLECULE
UAS
   27    29     1     0     0
SMALL
abcg2


@<TRIPOS>ATOM
      1 C10        166.9150    70.5660    49.3030 ca         1 UAS      -0.054000
      2 C13        165.3910    68.2280    53.5890 ca         1 UAS      -0.092000
      3 C15        164.0830    66.7260    54.9380 ca         1 UAS      -0.101000
      4 C17        165.0870    65.9510    52.8940 ca         1 UAS      -0.092000
      5 C02        165.8710    68.5390    50.5130 c          1 UAS       0.590700
      6 C03        166.4570    67.4810    51.4450 c5         1 UAS      -0.226400
      7 C04        167.8680    67.9870    51.7330 c          1 UAS       0.590700
      8 C06        168.1070    69.1650    50.8760 ca         1 UAS      -0.156600
      9 C07        169.2660    69.9150    50.7360 ca         1 UAS      -0.054000
     10 C08        169.2330    70.9960    49.8670 ca         1 UAS      -0.099000
     11 C09        168.0710    71.3170    49.1600 ca         1 UAS      -0.099000
     12 C11        166.9520    69.4850    50.1710 ca         1 UAS      -0.156600
     13 C12        165.6300    67.2100    52.6670 ca         1 UAS      -0.060300
     14 C14        164.6230    67.9870    54.7180 ca         1 UAS      -0.106500
     15 C16        164.3160    65.7090    54.0240 ca         1 UAS      -0.106500
     16 O01        164.7300    68.5900    50.1330 o          1 UAS      -0.481100
     17 O05        168.6420    67.5100    52.5230 o          1 UAS      -0.481100
     18 H101       166.0170    70.8160    48.7540 ha         1 UAS       0.136000
     19 H151       163.4830    66.5380    55.8190 ha         1 UAS       0.114000
     20 H171       165.2640    65.1540    52.1820 ha         1 UAS       0.112500
     21 H031       166.5600    66.5600    50.8560 hc         1 UAS       0.103700
     22 H071       170.1650    69.6690    51.2860 ha         1 UAS       0.136000
     23 H081       170.1180    71.6030    49.7330 ha         1 UAS       0.121000
     24 H091       168.0790    72.1680    48.4910 ha         1 UAS       0.121000
     25 H141       164.4430    68.7860    55.4250 ha         1 UAS       0.114500
     26 H161       163.8980    64.7240    54.1870 ha         1 UAS       0.114500
     27 H131       165.8040    69.2190    53.4300 ha         1 UAS       0.112500
@<TRIPOS>BOND
     1     1    11 ar  
     2     1    12 ar  
     3     1    18 1   
     4     2    13 ar  
     5     2    14 ar  
     6     2    27 1   
     7     3    14 ar  
     8     3    15 ar  
     9     3    19 1   
    10     4    13 ar  
    11     4    15 ar  
    12     4    20 1   
    13     5     6 1   
    14     5    12 1   
    15     5    16 2   
    16     6     7 1   
    17     6    13 1   
    18     6    21 1   
    19     7     8 1   
    20     7    17 2   
    21     8     9 ar  
    22     8    12 ar  
    23     9    10 ar  
    24     9    22 1   
    25    10    11 ar  
    26    10    23 1   
    27    11    24 1   
    28    14    25 1   
    29    15    26 1   
@<TRIPOS>SUBSTRUCTURE
     1 UAS         1 TEMP              0 ****  ****    0 ROOT
