@<TRIPOS>MOLECULE
UAT
   37    38     1     0     0
SMALL
bcc


@<TRIPOS>ATOM
      1 C4         -11.9060   -27.1750     4.3790 c6         1 UAT       0.100000
      2 C14        -10.3440   -28.0830     2.1370 c6         1 UAT      -0.084900
      3 C5         -13.6830   -26.7410     2.7080 c          1 UAT       0.764100
      4 C6         -14.7870   -28.5240     4.0240 c3         1 UAT       0.128300
      5 C11        -16.8540   -30.4420     1.4780 ca         1 UAT      -0.129500
      6 C7         -15.1630   -29.4470     2.8910 ca         1 UAT      -0.133300
      7 C8         -14.1830   -30.0920     2.1400 ca         1 UAT      -0.111000
      8 C9         -14.5320   -30.9000     1.0650 ca         1 UAT      -0.129500
      9 C10        -15.8680   -31.0760     0.7310 ca         1 UAT      -0.118000
     10 C12        -16.5000   -29.6330     2.5490 ca         1 UAT      -0.111000
     11 C13        -11.3640   -26.9580     2.0220 c6         1 UAT       0.100000
     12 N1         -12.4110   -27.1310     3.0130 n          1 UAT      -0.481800
     13 N2         -14.6610   -27.1300     3.6050 ns         1 UAT      -0.539900
     14 C3         -10.9130   -28.3120     4.5520 c6         1 UAT      -0.084900
     15 C1          -8.8030   -29.3710     3.6630 c3         1 UAT      -0.086100
     16 C2          -9.7710   -28.2030     3.5460 c6         1 UAT      -0.062700
     17 O1         -13.9560   -26.0850     1.7120 o          1 UAT      -0.623100
     18 H1         -11.4060   -26.2220     4.5990 h1         1 UAT       0.049950
     19 H2         -12.7270   -27.2600     5.0850 h1         1 UAT       0.049950
     20 H3         -10.8210   -29.0280     1.8560 hc         1 UAT       0.046450
     21 H4          -9.5430   -27.9060     1.4150 hc         1 UAT       0.046450
     22 H5         -15.5530   -28.5540     4.8010 h1         1 UAT       0.060200
     23 H6         -13.8640   -28.8640     4.4900 h1         1 UAT       0.060200
     24 H8         -13.1390   -29.9680     2.4000 ha         1 UAT       0.131000
     25 H9         -13.7590   -31.3960     0.4920 ha         1 UAT       0.131500
     26 H10        -16.1410   -31.7080    -0.1040 ha         1 UAT       0.131000
     27 H11        -17.2740   -29.1450     3.1300 ha         1 UAT       0.131000
     28 H12        -11.8060   -26.9530     1.0280 h1         1 UAT       0.049950
     29 H13        -10.8670   -25.9880     2.1590 h1         1 UAT       0.049950
     30 H14        -15.5540   -26.7400     3.3350 hn         1 UAT       0.292500
     31 H15        -10.5230   -28.2930     5.5730 hc         1 UAT       0.046450
     32 H16        -11.4280   -29.2710     4.4250 hc         1 UAT       0.046450
     33 H17         -8.3800   -29.4370     4.6670 hc         1 UAT       0.034367
     34 H18         -9.3080   -30.3170     3.4530 hc         1 UAT       0.034367
     35 H19         -7.9750   -29.2730     2.9590 hc         1 UAT       0.034367
     36 H20         -9.2230   -27.2770     3.7650 hc         1 UAT       0.046700
     37 H7         -17.8980   -30.5810     1.2280 ha         1 UAT       0.131500
@<TRIPOS>BOND
     1     1    12 1   
     2     1    14 1   
     3     1    18 1   
     4     1    19 1   
     5     2    11 1   
     6     2    16 1   
     7     2    20 1   
     8     2    21 1   
     9     3    12 1   
    10     3    13 1   
    11     3    17 2   
    12     4     6 1   
    13     4    13 1   
    14     4    22 1   
    15     4    23 1   
    16     5     9 ar  
    17     5    10 ar  
    18     5    37 1   
    19     6     7 ar  
    20     6    10 ar  
    21     7     8 ar  
    22     7    24 1   
    23     8     9 ar  
    24     8    25 1   
    25     9    26 1   
    26    10    27 1   
    27    11    12 1   
    28    11    28 1   
    29    11    29 1   
    30    13    30 1   
    31    14    16 1   
    32    14    31 1   
    33    14    32 1   
    34    15    16 1   
    35    15    33 1   
    36    15    34 1   
    37    15    35 1   
    38    16    36 1   
@<TRIPOS>SUBSTRUCTURE
     1 UAT         1 TEMP              0 ****  ****    0 ROOT
