@<TRIPOS>MOLECULE
UAT
   37    38     1     0     0
SMALL
No Charge or Current Charge


@<TRIPOS>ATOM
      1 C4         -11.9210   -27.3190     4.4040 c6         1 UAT       0.100000
      2 C14        -10.3880   -28.1650     2.0450 c6         1 UAT      -0.084900
      3 C5         -13.7590   -26.5820     2.8740 c          1 UAT       0.630100
      4 C6         -15.0180   -28.4090     4.0840 c3         1 UAT       0.128300
      5 C11        -16.7410   -30.3790     1.2790 ca         1 UAT      -0.111500
      6 C7         -15.2480   -29.3670     2.9230 ca         1 UAT      -0.133300
      7 C8         -14.1780   -30.1190     2.3990 ca         1 UAT      -0.093000
      8 C9         -14.3890   -30.9960     1.3210 ca         1 UAT      -0.111500
      9 C10        -15.6710   -31.1270     0.7610 ca         1 UAT      -0.100000
     10 C12        -16.5310   -29.5010     2.3570 ca         1 UAT      -0.093000
     11 C13        -11.4880   -27.0780     1.9710 c6         1 UAT       0.100000
     12 N1         -12.5160   -27.2190     3.0380 n          1 UAT      -0.414800
     13 N2         -14.8310   -27.0330     3.6100 ns         1 UAT      -0.472900
     14 C3         -10.8410   -28.4210     4.5140 c6         1 UAT      -0.084900
     15 C1          -8.6570   -29.3360     3.5310 c3         1 UAT      -0.086100
     16 C2          -9.7380   -28.2270     3.4470 c6         1 UAT      -0.062700
     17 O1         -13.9150   -25.6660     2.0830 o          1 UAT      -0.623100
     18 H1         -11.4520   -26.3520     4.6370 h1         1 UAT       0.049950
     19 H2         -12.6880   -27.4710     5.1720 h1         1 UAT       0.049950
     20 H3         -10.8290   -29.1400     1.7960 hc         1 UAT       0.046450
     21 H4          -9.6230   -27.9640     1.2820 hc         1 UAT       0.046450
     22 H5         -15.8940   -28.4290     4.7470 h1         1 UAT       0.060200
     23 H6         -14.1620   -28.7510     4.6750 h1         1 UAT       0.060200
     24 H8         -13.1810   -30.0230     2.8230 ha         1 UAT       0.113000
     25 H9         -13.5580   -31.5730     0.9200 ha         1 UAT       0.113500
     26 H10        -15.8340   -31.8060    -0.0740 ha         1 UAT       0.113000
     27 H11        -17.3650   -28.9240     2.7500 ha         1 UAT       0.113000
     28 H12        -11.9730   -27.1310     0.9860 h1         1 UAT       0.049950
     29 H13        -11.0230   -26.0850     2.0560 h1         1 UAT       0.049950
     30 H14        -15.6700   -26.4780     3.5010 hn         1 UAT       0.292500
     31 H15        -10.4010   -28.4020     5.5200 hc         1 UAT       0.046450
     32 H16        -11.3120   -29.4060     4.3960 hc         1 UAT       0.046450
     33 H17         -8.1830   -29.3520     4.5200 hc         1 UAT       0.034367
     34 H18         -9.0870   -30.3290     3.3500 hc         1 UAT       0.034367
     35 H19         -7.8660   -29.1740     2.7890 hc         1 UAT       0.034367
     36 H20         -9.2240   -27.2740     3.6400 hc         1 UAT       0.046700
     37 H7         -17.7340   -30.4790     0.8460 ha         1 UAT       0.113500
@<TRIPOS>BOND
     1     1    12 1   
     2     1    14 1   
     3     1    18 1   
     4     1    19 1   
     5     2    11 1   
     6     2    16 1   
     7     2    20 1   
     8     2    21 1   
     9     3    12 1   
    10     3    13 1   
    11     3    17 2   
    12     4     6 1   
    13     4    13 1   
    14     4    22 1   
    15     4    23 1   
    16     5     9 ar  
    17     5    10 ar  
    18     5    37 1   
    19     6     7 ar  
    20     6    10 ar  
    21     7     8 ar  
    22     7    24 1   
    23     8     9 ar  
    24     8    25 1   
    25     9    26 1   
    26    10    27 1   
    27    11    12 1   
    28    11    28 1   
    29    11    29 1   
    30    13    30 1   
    31    14    16 1   
    32    14    31 1   
    33    14    32 1   
    34    15    16 1   
    35    15    33 1   
    36    15    34 1   
    37    15    35 1   
    38    16    36 1   
@<TRIPOS>SUBSTRUCTURE
     1 UAT         1 TEMP              0 ****  ****    0 ROOT
