@<TRIPOS>MOLECULE
UAU
   53    57     1     0     0
SMALL
No Charge or Current Charge


@<TRIPOS>ATOM
      1 C13         16.8230   -19.4850    77.2900 ca         1 UAU      -0.115000
      2 C16         16.0540   -20.1560    79.9050 ca         1 UAU      -0.087000
      3 C15         15.1970   -20.4310    78.8250 ca         1 UAU      -0.115000
      4 C19         22.2010   -16.1290    79.0690 ca         1 UAU      -0.101000
      5 C20         21.3760   -15.4380    78.1610 ca         1 UAU       0.275000
      6 C21         21.9720   -14.8320    77.0480 ca         1 UAU      -0.199000
      7 C22         23.3580   -14.9290    76.8750 ca         1 UAU       0.333900
      8 C24         23.5870   -16.1710    78.8150 ca         1 UAU       0.340900
      9 C11         17.3060   -19.5380    79.6910 ca         1 UAU      -0.028800
     10 C12         17.6810   -19.2100    78.3690 ca         1 UAU      -0.087000
     11 C27         18.0420   -14.6040    79.8710 c6         1 UAU       0.149600
     12 C1          19.9310   -18.4430    81.8690 cc         1 UAU      -0.108000
     13 N2          19.1220   -19.0970    82.7620 na         1 UAU       0.229900
     14 N3          19.3740   -19.3070    84.0980 nc         1 UAU      -0.445800
     15 C4          20.5460   -18.7810    84.4810 cd         1 UAU       0.298900
     16 C5          21.4750   -18.0620    83.6420 cd         1 UAU      -0.098000
     17 C6          21.1720   -17.8650    82.3080 cc         1 UAU      -0.073600
     18 C7          22.1160   -17.1040    81.4290 c          1 UAU       0.616700
     19 N8          19.3810   -18.5120    80.6700 nd         1 UAU      -0.302600
     20 C9          18.2020   -19.2330    80.8270 cd         1 UAU       0.123400
     21 C10         18.0100   -19.5850    82.1460 cc         1 UAU      -0.208100
     22 C14         15.5800   -20.0940    77.5170 ca         1 UAU      -0.099000
     23 N17         21.6130   -16.7920    80.1800 ns         1 UAU      -0.137000
     24 O18         23.2310   -16.7430    81.7940 o          1 UAU      -0.588100
     25 N23         24.1620   -15.5850    77.7380 nb         1 UAU      -0.660000
     26 N25         19.9870   -15.3150    78.3980 nh         1 UAU      -0.786400
     27 C26         19.5230   -14.3590    79.4570 c6         1 UAU       0.154800
     28 O28         17.1820   -14.6190    78.7070 os         1 UAU      -0.459000
     29 C29         17.5460   -15.6600    77.7750 c6         1 UAU       0.158300
     30 C30         19.0130   -15.4630    77.2690 c6         1 UAU       0.156800
     31 C31         16.5120   -15.6350    76.6250 c3         1 UAU      -0.088100
     32 H36         17.1240   -19.2260    76.2770 ha         1 UAU       0.115000
     33 H39         15.7320   -20.4200    80.9090 ha         1 UAU       0.122500
     34 H38         14.2340   -20.9050    79.0030 ha         1 UAU       0.115000
     35 H41         21.3800   -14.2740    76.3310 ha         1 UAU       0.123000
     36 H42         23.8440   -14.4610    76.0190 h4         1 UAU       0.019100
     37 H43         24.2650   -16.7130    79.4730 h4         1 UAU       0.043100
     38 H35         18.6420   -18.7410    78.1690 ha         1 UAU       0.122500
     39 H46         17.9560   -15.5670    80.3970 h1         1 UAU       0.059200
     40 H32         20.7600   -18.9410    85.5300 h4         1 UAU       0.047100
     41 H33         22.3920   -17.6780    84.0740 ha         1 UAU       0.162000
     42 H34         17.2360   -20.1350    82.6610 h4         1 UAU       0.249000
     43 H37         14.9160   -20.3070    76.6820 ha         1 UAU       0.115000
     44 H40         20.6480   -17.0660    80.0360 hn         1 UAU       0.210000
     45 H45         20.1520   -14.4440    80.3550 h1         1 UAU       0.051200
     46 H44         19.6190   -13.3260    79.0920 h1         1 UAU       0.051200
     47 H48         17.4680   -16.6250    78.2900 h1         1 UAU       0.053700
     48 H49         19.2880   -16.3280    76.6470 h1         1 UAU       0.047700
     49 H50         19.0470   -14.5710    76.6260 h1         1 UAU       0.047700
     50 H52         15.4960   -15.7860    77.0070 hc         1 UAU       0.046033
     51 H51         16.5340   -14.6780    76.0890 hc         1 UAU       0.046033
     52 H53         16.7150   -16.4310    75.8990 hc         1 UAU       0.046033
     53 H47         17.7100   -13.8110    80.5560 h1         1 UAU       0.059200
@<TRIPOS>BOND
     1     1    10 ar  
     2     1    22 ar  
     3     1    32 1   
     4     2     3 ar  
     5     2     9 ar  
     6     2    33 1   
     7     3    22 ar  
     8     3    34 1   
     9     4     5 ar  
    10     4     8 ar  
    11     4    23 1   
    12     5     6 ar  
    13     5    26 1   
    14     6     7 ar  
    15     6    35 1   
    16     7    25 ar  
    17     7    36 1   
    18     8    25 ar  
    19     8    37 1   
    20     9    10 ar  
    21     9    20 1   
    22    10    38 1   
    23    11    27 1   
    24    11    28 1   
    25    11    39 1   
    26    11    53 1   
    27    12    13 1   
    28    12    17 1   
    29    12    19 2   
    30    13    14 1   
    31    13    21 1   
    32    14    15 2   
    33    15    16 1   
    34    15    40 1   
    35    16    17 2   
    36    16    41 1   
    37    17    18 1   
    38    18    23 1   
    39    18    24 2   
    40    19    20 1   
    41    20    21 2   
    42    21    42 1   
    43    22    43 1   
    44    23    44 1   
    45    26    27 1   
    46    26    30 1   
    47    27    45 1   
    48    27    46 1   
    49    28    29 1   
    50    29    30 1   
    51    29    31 1   
    52    29    47 1   
    53    30    48 1   
    54    30    49 1   
    55    31    50 1   
    56    31    51 1   
    57    31    52 1   
@<TRIPOS>SUBSTRUCTURE
     1 UAU         1 TEMP              0 ****  ****    0 ROOT
