@<TRIPOS>MOLECULE
UAU
   53    57     1     0     0
SMALL
abcg2


@<TRIPOS>ATOM
      1 C13         16.8150   -19.5340    77.4300 ca         1 UAU      -0.115000
      2 C16         15.9860   -19.9400    80.0520 ca         1 UAU      -0.087000
      3 C15         15.1170   -20.1960    79.0020 ca         1 UAU      -0.115000
      4 C19         22.1490   -16.1200    79.0880 ca         1 UAU      -0.101000
      5 C20         21.2870   -15.4980    78.1580 ca         1 UAU       0.275000
      6 C21         21.8920   -14.8960    77.0520 ca         1 UAU      -0.199000
      7 C22         23.2740   -14.8900    76.9420 ca         1 UAU       0.333900
      8 C24         23.5240   -16.0520    78.8870 ca         1 UAU       0.340900
      9 C11         17.2850   -19.4770    79.8040 ca         1 UAU      -0.028800
     10 C12         17.6880   -19.2780    78.4790 ca         1 UAU      -0.087000
     11 C27         17.9510   -15.1960    79.7830 c6         1 UAU       0.149600
     12 C1          19.9780   -18.4360    81.8810 cc         1 UAU      -0.108000
     13 N2          19.2230   -19.1130    82.8450 na         1 UAU       0.229900
     14 N3          19.5450   -19.2590    84.1360 nc         1 UAU      -0.445800
     15 C4          20.6770   -18.6980    84.4900 cd         1 UAU       0.298900
     16 C5          21.5230   -17.9780    83.6180 cd         1 UAU      -0.098000
     17 C6          21.1840   -17.8300    82.2960 cc         1 UAU      -0.073600
     18 C7          22.0700   -17.0350    81.3810 c          1 UAU       0.616700
     19 N8          19.3690   -18.4940    80.7070 nd         1 UAU      -0.302600
     20 C9          18.2110   -19.2060    80.9010 cd         1 UAU       0.123400
     21 C10         18.1060   -19.5980    82.2250 cc         1 UAU      -0.208100
     22 C14         15.5270   -19.9940    77.6860 ca         1 UAU      -0.099000
     23 N17         21.5780   -16.8660    80.1300 ns         1 UAU      -0.137000
     24 O18         23.1320   -16.5710    81.7820 o          1 UAU      -0.588100
     25 N23         24.0910   -15.4410    77.8430 nb         1 UAU      -0.660000
     26 N25         19.9040   -15.5360    78.3510 nh         1 UAU      -0.786400
     27 C26         19.4000   -14.8230    79.5390 c6         1 UAU       0.154800
     28 O28         17.1480   -14.9180    78.6390 os         1 UAU      -0.459000
     29 C29         17.6150   -15.6390    77.4920 c6         1 UAU       0.158300
     30 C30         19.0600   -15.2640    77.1870 c6         1 UAU       0.156800
     31 C31         16.6880   -15.3310    76.3370 c3         1 UAU      -0.088100
     32 H36         17.1410   -19.3720    76.4100 ha         1 UAU       0.115000
     33 H39         15.6520   -20.0880    81.0710 ha         1 UAU       0.122500
     34 H38         14.1140   -20.5490    79.2100 ha         1 UAU       0.115000
     35 H41         21.2970   -14.4120    76.2920 ha         1 UAU       0.123000
     36 H42         23.7430   -14.4080    76.0910 h4         1 UAU       0.019100
     37 H43         24.1860   -16.5300    79.5960 h4         1 UAU       0.043100
     38 H35         18.6890   -18.9210    78.2800 ha         1 UAU       0.122500
     39 H46         17.8800   -16.2590    80.0400 h1         1 UAU       0.059200
     40 H32         20.9380   -18.8170    85.5330 h4         1 UAU       0.047100
     41 H33         22.4340   -17.5370    83.9950 ha         1 UAU       0.162000
     42 H34         17.3730   -20.1730    82.7610 h4         1 UAU       0.249000
     43 H37         14.8460   -20.1920    76.8680 ha         1 UAU       0.115000
     44 H40         20.6620   -17.2780    79.9370 hn         1 UAU       0.210000
     45 H45         19.9930   -15.0820    80.4130 h1         1 UAU       0.051200
     46 H44         19.4830   -13.7400    79.3790 h1         1 UAU       0.051200
     47 H48         17.5780   -16.7090    77.7250 h1         1 UAU       0.053700
     48 H49         19.4160   -15.8610    76.3470 h1         1 UAU       0.047700
     49 H50         19.0980   -14.2030    76.9000 h1         1 UAU       0.047700
     50 H52         15.6650   -15.6130    76.5900 hc         1 UAU       0.046033
     51 H51         16.7080   -14.2650    76.0990 hc         1 UAU       0.046033
     52 H53         16.9900   -15.8910    75.4510 hc         1 UAU       0.046033
     53 H47         17.5460   -14.6040    80.6030 h1         1 UAU       0.059200
@<TRIPOS>BOND
     1     1    10 ar  
     2     1    22 ar  
     3     1    32 1   
     4     2     3 ar  
     5     2     9 ar  
     6     2    33 1   
     7     3    22 ar  
     8     3    34 1   
     9     4     5 ar  
    10     4     8 ar  
    11     4    23 1   
    12     5     6 ar  
    13     5    26 1   
    14     6     7 ar  
    15     6    35 1   
    16     7    25 ar  
    17     7    36 1   
    18     8    25 ar  
    19     8    37 1   
    20     9    10 ar  
    21     9    20 1   
    22    10    38 1   
    23    11    27 1   
    24    11    28 1   
    25    11    39 1   
    26    11    53 1   
    27    12    13 1   
    28    12    17 1   
    29    12    19 2   
    30    13    14 1   
    31    13    21 1   
    32    14    15 2   
    33    15    16 1   
    34    15    40 1   
    35    16    17 2   
    36    16    41 1   
    37    17    18 1   
    38    18    23 1   
    39    18    24 2   
    40    19    20 1   
    41    20    21 2   
    42    21    42 1   
    43    22    43 1   
    44    23    44 1   
    45    26    27 1   
    46    26    30 1   
    47    27    45 1   
    48    27    46 1   
    49    28    29 1   
    50    29    30 1   
    51    29    31 1   
    52    29    47 1   
    53    30    48 1   
    54    30    49 1   
    55    31    50 1   
    56    31    51 1   
    57    31    52 1   
@<TRIPOS>SUBSTRUCTURE
     1 UAU         1 TEMP              0 ****  ****    0 ROOT
