@<TRIPOS>MOLECULE
UAW
   35    36     1     0     0
SMALL
No Charge or Current Charge


@<TRIPOS>ATOM
      1 C4         -11.7170   -28.1690     4.0380 c6         1 UAW       0.109500
      2 C5         -12.5850   -28.4130     1.6610 c          1 UAW       0.662100
      3 C6         -14.9920   -29.3410     1.7060 ca         1 UAW      -0.054000
      4 C11        -15.3530   -29.1810     0.3480 ca         1 UAW      -0.095500
      5 C7         -15.9210   -29.9160     2.5950 ca         1 UAW      -0.095500
      6 C8         -17.1870   -30.3300     2.1420 ca         1 UAW      -0.154500
      7 C9         -17.5350   -30.1700     0.7920 ca         1 UAW       0.119100
      8 C10        -16.6200   -29.5960    -0.1010 ca         1 UAW      -0.154500
      9 C12        -10.3480   -27.3460     2.0550 c6         1 UAW       0.109500
     10 C13         -9.0810   -27.4050     2.9370 c6         1 UAW      -0.090900
     11 N1         -11.5190   -28.1330     2.5510 n          1 UAW      -0.433800
     12 N2         -13.7330   -28.9460     2.2410 ns         1 UAW      -0.162000
     13 C3         -10.4220   -28.2000     4.8820 c6         1 UAW      -0.090900
     14 C1          -8.1250   -27.1500     5.2980 c3         1 UAW      -0.086100
     15 C2          -9.4040   -27.1400     4.4200 c6         1 UAW      -0.061700
     16 O1         -12.4750   -28.1940     0.4610 o          1 UAW      -0.623100
     17 O2         -18.7590   -30.5670     0.3430 oh         1 UAW      -0.534100
     18 H1         -12.3000   -27.2820     4.3240 h1         1 UAW       0.048450
     19 H2         -12.3110   -29.0500     4.3180 h1         1 UAW       0.048450
     20 H3         -14.6740   -28.7380    -0.3720 ha         1 UAW       0.121500
     21 H4         -15.6630   -30.0460     3.6440 ha         1 UAW       0.121500
     22 H5         -17.8890   -30.7730     2.8450 ha         1 UAW       0.121000
     23 H6         -16.8910   -29.4700    -1.1470 ha         1 UAW       0.121000
     24 H7         -10.0760   -27.6860     1.0450 h1         1 UAW       0.048450
     25 H8         -10.6610   -26.2960     1.9630 h1         1 UAW       0.048450
     26 H9          -8.6120   -28.3930     2.8290 hc         1 UAW       0.050700
     27 H10         -8.3480   -26.6730     2.5700 hc         1 UAW       0.050700
     28 H11        -13.6610   -29.0780     3.2400 hn         1 UAW       0.143000
     29 H12        -10.6750   -28.0490     5.9410 hc         1 UAW       0.050700
     30 H13         -9.9720   -29.2000     4.8120 hc         1 UAW       0.050700
     31 H14         -8.3650   -26.9480     6.3490 hc         1 UAW       0.035033
     32 H15         -7.6150   -28.1210     5.2530 hc         1 UAW       0.035033
     33 H16         -7.4130   -26.3840     4.9690 hc         1 UAW       0.035033
     34 H17         -9.8500   -26.1400     4.5210 hc         1 UAW       0.043700
     35 H18        -19.2630   -30.9410     1.0980 ho         1 UAW       0.462000
@<TRIPOS>BOND
     1     1    11 1   
     2     1    13 1   
     3     1    18 1   
     4     1    19 1   
     5     2    11 1   
     6     2    12 1   
     7     2    16 2   
     8     3     4 ar  
     9     3     5 ar  
    10     3    12 1   
    11     4     8 ar  
    12     4    20 1   
    13     5     6 ar  
    14     5    21 1   
    15     6     7 ar  
    16     6    22 1   
    17     7     8 ar  
    18     7    17 1   
    19     8    23 1   
    20     9    10 1   
    21     9    11 1   
    22     9    24 1   
    23     9    25 1   
    24    10    15 1   
    25    10    26 1   
    26    10    27 1   
    27    12    28 1   
    28    13    15 1   
    29    13    29 1   
    30    13    30 1   
    31    14    15 1   
    32    14    31 1   
    33    14    32 1   
    34    14    33 1   
    35    15    34 1   
    36    17    35 1   
@<TRIPOS>SUBSTRUCTURE
     1 UAW         1 TEMP              0 ****  ****    0 ROOT
