@<TRIPOS>MOLECULE
UAW
   35    36     1     0     0
SMALL
bcc


@<TRIPOS>ATOM
      1 C4         -11.7800   -27.9050     4.3610 c6         1 UAW       0.109500
      2 C5         -12.8270   -28.0770     2.0880 c          1 UAW       0.796100
      3 C6         -14.9500   -29.2980     1.9560 ca         1 UAW       0.038600
      4 C11        -14.7650   -30.0840     0.8190 ca         1 UAW      -0.113500
      5 C7         -16.2460   -29.1150     2.4280 ca         1 UAW      -0.113500
      6 C8         -17.3320   -29.7000     1.7930 ca         1 UAW      -0.172500
      7 C9         -17.1420   -30.4710     0.6520 ca         1 UAW       0.119100
      8 C10        -15.8480   -30.6530     0.1700 ca         1 UAW      -0.172500
      9 C12        -10.8850   -26.6590     2.4660 c6         1 UAW       0.109500
     10 C13         -9.4690   -27.1070     2.7910 c6         1 UAW      -0.090900
     11 N1         -11.8680   -27.6190     2.9390 n          1 UAW      -0.500800
     12 N2         -13.8780   -28.7460     2.6760 ns         1 UAW      -0.488100
     13 C3         -10.3730   -28.3580     4.7370 c6         1 UAW      -0.090900
     14 C1          -7.9050   -27.8610     4.6240 c3         1 UAW      -0.086100
     15 C2          -9.3040   -27.3690     4.2850 c6         1 UAW      -0.061700
     16 O1         -12.7640   -27.9200     0.8760 o          1 UAW      -0.623100
     17 O2         -18.1570   -31.0640    -0.0160 oh         1 UAW      -0.495100
     18 H1         -12.0480   -27.0100     4.9340 h1         1 UAW       0.048450
     19 H2         -12.4760   -28.6920     4.6440 h1         1 UAW       0.048450
     20 H3         -13.7720   -30.2700     0.4370 ha         1 UAW       0.139500
     21 H4         -16.4160   -28.5080     3.3100 ha         1 UAW       0.139500
     22 H5         -18.3280   -29.5440     2.1920 ha         1 UAW       0.139000
     23 H6         -15.6860   -31.2580    -0.7130 ha         1 UAW       0.139000
     24 H7         -11.0100   -26.5150     1.3970 h1         1 UAW       0.048450
     25 H8         -11.0780   -25.6930     2.9500 h1         1 UAW       0.048450
     26 H9          -9.2340   -28.0170     2.2300 hc         1 UAW       0.050700
     27 H10         -8.7680   -26.3360     2.4590 hc         1 UAW       0.050700
     28 H11        -14.0890   -28.5340     3.6380 hn         1 UAW       0.309500
     29 H12        -10.3300   -28.4980     5.8200 hc         1 UAW       0.050700
     30 H13        -10.1810   -29.3340     4.2800 hc         1 UAW       0.050700
     31 H14         -7.7890   -28.0180     5.6980 hc         1 UAW       0.035033
     32 H15         -7.6940   -28.8090     4.1250 hc         1 UAW       0.035033
     33 H16         -7.1460   -27.1430     4.3080 hc         1 UAW       0.035033
     34 H17         -9.4770   -26.4210     4.8110 hc         1 UAW       0.043700
     35 H18        -18.9990   -30.8620     0.4060 ho         1 UAW       0.423000
@<TRIPOS>BOND
     1     1    11 1   
     2     1    13 1   
     3     1    18 1   
     4     1    19 1   
     5     2    11 1   
     6     2    12 1   
     7     2    16 2   
     8     3     4 ar  
     9     3     5 ar  
    10     3    12 1   
    11     4     8 ar  
    12     4    20 1   
    13     5     6 ar  
    14     5    21 1   
    15     6     7 ar  
    16     6    22 1   
    17     7     8 ar  
    18     7    17 1   
    19     8    23 1   
    20     9    10 1   
    21     9    11 1   
    22     9    24 1   
    23     9    25 1   
    24    10    15 1   
    25    10    26 1   
    26    10    27 1   
    27    12    28 1   
    28    13    15 1   
    29    13    29 1   
    30    13    30 1   
    31    14    15 1   
    32    14    31 1   
    33    14    32 1   
    34    14    33 1   
    35    15    34 1   
    36    17    35 1   
@<TRIPOS>SUBSTRUCTURE
     1 UAW         1 TEMP              0 ****  ****    0 ROOT
