@<TRIPOS>MOLECULE
UAY
   26    28     1     0     0
SMALL
abcg2


@<TRIPOS>ATOM
      1 C4          27.3600    90.0980    16.7370 ca         1 UAY      -0.026000
      2 C5          26.6910    90.2630    17.9520 ca         1 UAY      -0.093500
      3 C6          27.3440    90.8140    19.0430 ca         1 UAY      -0.106500
      4 C7          28.6750    91.2000    18.9420 ca         1 UAY      -0.097000
      5 C8          29.3480    91.0360    17.7390 ca         1 UAY      -0.106500
      6 C9          28.6960    90.4930    16.6420 ca         1 UAY      -0.093500
      7 C10         26.0900    88.3420    13.4960 cc         1 UAY      -0.314900
      8 C11         26.0090    87.6060    12.2510 cc         1 UAY       0.446900
      9 C12         24.6110    87.4510    11.6770 c          1 UAY       0.490700
     10 O1          24.4130    86.8430    10.6560 o          1 UAY      -0.468000
     11 N           23.5840    88.0380    12.3740 ns         1 UAY      -0.472500
     12 C           23.6540    88.7510    13.5540 c          1 UAY       0.610600
     13 O           22.6630    89.2210    14.0630 o          1 UAY      -0.505000
     14 C1          24.9980    88.8820    14.1230 cd         1 UAY      -0.145600
     15 S           27.5200    88.6500    14.3790 ss         1 UAY       0.285000
     16 C3          26.6550    89.5220    15.5940 cc         1 UAY      -0.142000
     17 C2          25.3140    89.5580    15.3200 cd         1 UAY      -0.079000
     18 H1          25.6630    89.9430    18.0540 ha         1 UAY       0.117000
     19 H2          26.8140    90.9320    19.9790 ha         1 UAY       0.118500
     20 H3          27.8570    87.2170    12.0080 hn         1 UAY       0.389400
     21 H4          29.1840    91.6250    19.7970 ha         1 UAY       0.118000
     22 H5          30.3830    91.3370    17.6470 ha         1 UAY       0.118500
     23 H6          29.2340    90.3970    15.7060 ha         1 UAY       0.117000
     24 H7          22.6590    87.9290    11.9730 hn         1 UAY       0.339500
     25 H8          24.5880    90.0670    15.9370 ha         1 UAY       0.161000
     26 N1          26.9440    87.0810    11.5800 n2         1 UAY      -0.662100
@<TRIPOS>BOND
     1     1     2 ar  
     2     1     6 ar  
     3     1    16 1   
     4     2     3 ar  
     5     2    18 1   
     6     3     4 ar  
     7     3    19 1   
     8     4     5 ar  
     9     4    21 1   
    10     5     6 ar  
    11     5    22 1   
    12     6    23 1   
    13     7     8 1   
    14     7    14 2   
    15     7    15 1   
    16     8     9 1   
    17     8    26 2   
    18     9    10 2   
    19     9    11 1   
    20    11    12 1   
    21    11    24 1   
    22    12    13 2   
    23    12    14 1   
    24    14    17 1   
    25    15    16 1   
    26    16    17 2   
    27    17    25 1   
    28    20    26 1   
@<TRIPOS>SUBSTRUCTURE
     1 UAY         1 TEMP              0 ****  ****    0 ROOT
