@<TRIPOS>MOLECULE
UAY
   26    28     1     0     0
SMALL
No Charge or Current Charge


@<TRIPOS>ATOM
      1 C4          27.4030    90.0580    16.7190 ca         1 UAY      -0.026000
      2 C5          26.6950    90.1870    17.9340 ca         1 UAY      -0.093500
      3 C6          27.3000    90.7870    19.0530 ca         1 UAY      -0.106500
      4 C7          28.6190    91.2620    18.9710 ca         1 UAY      -0.097000
      5 C8          29.3330    91.1330    17.7690 ca         1 UAY      -0.106500
      6 C9          28.7290    90.5320    16.6500 ca         1 UAY      -0.093500
      7 C10         26.1170    88.2800    13.4460 cc         1 UAY      -0.314900
      8 C11         25.9330    87.5640    12.2150 cc         1 UAY       0.446900
      9 C12         24.5310    87.4630    11.6450 c          1 UAY       0.490700
     10 O1          24.2300    86.8840    10.6070 o          1 UAY      -0.468000
     11 N           23.5460    88.0870    12.3830 ns         1 UAY      -0.472500
     12 C           23.6550    88.7830    13.5570 c          1 UAY       0.610600
     13 O           22.6810    89.2840    14.0950 o          1 UAY      -0.505000
     14 C1          25.0450    88.8620    14.0930 cd         1 UAY      -0.145600
     15 S           27.6430    88.5360    14.2900 ss         1 UAY       0.285000
     16 C3          26.7890    89.4290    15.5460 cc         1 UAY      -0.142000
     17 C2          25.4390    89.5230    15.2940 cd         1 UAY      -0.079000
     18 H1          25.6790    89.8110    18.0240 ha         1 UAY       0.117000
     19 H2          26.7470    90.8800    19.9850 ha         1 UAY       0.118500
     20 H3          27.8050    87.1880    12.1370 hn         1 UAY       0.389400
     21 H4          29.0860    91.7260    19.8370 ha         1 UAY       0.118000
     22 H5          30.3550    91.5000    17.7030 ha         1 UAY       0.118500
     23 H6          29.2960    90.4470    15.7260 ha         1 UAY       0.117000
     24 H7          22.6120    88.0240    12.0070 hn         1 UAY       0.339500
     25 H8          24.7370    90.0530    15.9310 ha         1 UAY       0.161000
     26 N1          26.9440    87.0160    11.6040 n2         1 UAY      -0.662100
@<TRIPOS>BOND
     1     1     2 ar  
     2     1     6 ar  
     3     1    16 1   
     4     2     3 ar  
     5     2    18 1   
     6     3     4 ar  
     7     3    19 1   
     8     4     5 ar  
     9     4    21 1   
    10     5     6 ar  
    11     5    22 1   
    12     6    23 1   
    13     7     8 1   
    14     7    14 2   
    15     7    15 1   
    16     8     9 1   
    17     8    26 2   
    18     9    10 2   
    19     9    11 1   
    20    11    12 1   
    21    11    24 1   
    22    12    13 2   
    23    12    14 1   
    24    14    17 1   
    25    15    16 1   
    26    16    17 2   
    27    17    25 1   
    28    20    26 1   
@<TRIPOS>SUBSTRUCTURE
     1 UAY         1 TEMP              0 ****  ****    0 ROOT
