@<TRIPOS>MOLECULE
UAZ
   38    39     1     0     0
SMALL
abcg2


@<TRIPOS>ATOM
      1 C4         -15.4140   -30.4590     2.5920 ca         1 UAZ      -0.091000
      2 C14        -16.5550   -29.9360     0.1250 ca         1 UAZ      -0.153500
      3 C5         -14.9750   -29.3550     1.8610 ca         1 UAZ      -0.063000
      4 C11        -11.2730   -27.7390     4.6890 c6         1 UAZ      -0.105400
      5 C7         -10.6080   -27.2460     1.9060 c6         1 UAZ       0.095500
      6 C8          -9.6900   -28.0960     2.7770 c6         1 UAZ      -0.105400
      7 C9          -9.8070   -27.7210     4.2550 c6         1 UAZ      -0.060700
      8 C10         -8.9540   -28.6250     5.1300 c3         1 UAZ      -0.087100
      9 C12        -12.1230   -26.8940     3.7480 c6         1 UAZ       0.095500
     10 C13        -15.5680   -29.0990     0.6310 ca         1 UAZ      -0.091000
     11 N1         -13.9910   -28.5120     2.4060 ns         1 UAZ      -0.163000
     12 N2         -11.9820   -27.3430     2.3730 n          1 UAZ      -0.411800
     13 C3         -16.4110   -31.2840     2.1060 ca         1 UAZ      -0.153500
     14 C1         -18.5770   -31.6680    -0.7830 c3         1 UAZ       0.148900
     15 C2         -16.9840   -31.0390     0.8590 ca         1 UAZ       0.125100
     16 O2         -12.6450   -28.5590     0.5770 o          1 UAZ      -0.621100
     17 H1         -14.9680   -30.6760     3.5550 ha         1 UAZ       0.120000
     18 H2         -16.9820   -29.7000    -0.8400 ha         1 UAZ       0.122500
     19 H3         -11.3700   -27.3600     5.7100 hc         1 UAZ       0.048950
     20 H4         -11.6460   -28.7700     4.6940 hc         1 UAZ       0.048950
     21 H5         -10.5520   -27.5450     0.8630 h1         1 UAZ       0.058950
     22 H6         -10.3030   -26.1960     1.9590 h1         1 UAZ       0.058950
     23 H7          -9.9460   -29.1530     2.6460 hc         1 UAZ       0.048950
     24 H8          -8.6560   -27.9760     2.4400 hc         1 UAZ       0.048950
     25 H9          -9.4460   -26.6900     4.3650 hc         1 UAZ       0.045700
     26 H10         -9.0100   -28.3310     6.1800 hc         1 UAZ       0.035367
     27 H11         -9.2880   -29.6630     5.0590 hc         1 UAZ       0.035367
     28 H12         -7.9050   -28.5930     4.8310 hc         1 UAZ       0.035367
     29 H13        -11.7810   -25.8550     3.7880 h1         1 UAZ       0.058950
     30 H14        -13.1680   -26.8670     4.0510 h1         1 UAZ       0.058950
     31 H15        -15.2710   -28.2350     0.0540 ha         1 UAZ       0.120000
     32 H16        -13.9680   -28.4900     3.4120 hn         1 UAZ       0.143000
     33 H17        -16.7420   -32.1340     2.6890 ha         1 UAZ       0.122500
     34 H18        -19.3090   -32.4620    -0.9100 h1         1 UAZ       0.039700
     35 H19        -19.0980   -30.7070    -0.7960 h1         1 UAZ       0.039700
     36 H20        -17.8790   -31.6990    -1.6250 h1         1 UAZ       0.039700
     37 O1         -17.9330   -31.9070     0.4500 os         1 UAZ      -0.343100
     38 C6         -12.8460   -28.1710     1.7200 c          1 UAZ       0.653100
@<TRIPOS>BOND
     1     1     3 ar  
     2     1    13 ar  
     3     1    17 1   
     4     2    10 ar  
     5     2    15 ar  
     6     2    18 1   
     7     3    10 ar  
     8     3    11 1   
     9     4     7 1   
    10     4     9 1   
    11     4    19 1   
    12     4    20 1   
    13     5     6 1   
    14     5    12 1   
    15     5    21 1   
    16     5    22 1   
    17     6     7 1   
    18     6    23 1   
    19     6    24 1   
    20     7     8 1   
    21     7    25 1   
    22     8    26 1   
    23     8    27 1   
    24     8    28 1   
    25     9    12 1   
    26     9    29 1   
    27     9    30 1   
    28    10    31 1   
    29    11    32 1   
    30    11    38 1   
    31    12    38 1   
    32    13    15 ar  
    33    13    33 1   
    34    14    34 1   
    35    14    35 1   
    36    14    36 1   
    37    14    37 1   
    38    15    37 1   
    39    16    38 2   
@<TRIPOS>SUBSTRUCTURE
     1 UAZ         1 TEMP              0 ****  ****    0 ROOT
