@<TRIPOS>MOLECULE
UAZ
   38    39     1     0     0
SMALL
No Charge or Current Charge


@<TRIPOS>ATOM
      1 C4         -16.0910   -29.8170     2.6550 ca         1 UAZ      -0.091000
      2 C14        -16.4200   -30.4080    -0.0680 ca         1 UAZ      -0.153500
      3 C5         -15.1070   -29.4040     1.7370 ca         1 UAZ      -0.063000
      4 C11        -11.0000   -28.1380     4.7680 c6         1 UAZ      -0.105400
      5 C7         -10.6230   -26.9980     2.0710 c6         1 UAZ       0.095500
      6 C8          -9.4600   -27.7320     2.7810 c6         1 UAZ      -0.105400
      7 C9          -9.5980   -27.6400     4.3250 c6         1 UAZ      -0.060700
      8 C10         -8.4620   -28.4110     5.0470 c3         1 UAZ      -0.087100
      9 C12        -12.1210   -27.3890     4.0090 c6         1 UAZ       0.095500
     10 C13        -15.2820   -29.7050     0.3680 ca         1 UAZ      -0.091000
     11 N1         -13.9840   -28.6960     2.2550 ns         1 UAZ      -0.163000
     12 N2         -11.9350   -27.5220     2.5360 n          1 UAZ      -0.411800
     13 C3         -17.2270   -30.5200     2.2190 ca         1 UAZ      -0.153500
     14 C1         -18.8050   -31.8670    -0.8780 c3         1 UAZ       0.148900
     15 C2         -17.4000   -30.8200     0.8600 ca         1 UAZ       0.125100
     16 O2         -12.5880   -28.2890     0.4680 o          1 UAZ      -0.621100
     17 H1         -15.9760   -29.5940     3.7140 ha         1 UAZ       0.120000
     18 H2         -16.5230   -30.6220    -1.1280 ha         1 UAZ       0.122500
     19 H3         -11.1280   -27.9950     5.8490 hc         1 UAZ       0.048950
     20 H4         -11.0920   -29.2170     4.5810 hc         1 UAZ       0.048950
     21 H5         -10.5130   -27.1080     0.9830 h1         1 UAZ       0.058950
     22 H6         -10.5680   -25.9230     2.2930 h1         1 UAZ       0.058950
     23 H7          -9.4510   -28.7850     2.4670 hc         1 UAZ       0.048950
     24 H8          -8.5020   -27.3000     2.4600 hc         1 UAZ       0.048950
     25 H9          -9.4930   -26.5870     4.6210 hc         1 UAZ       0.045700
     26 H10         -8.5460   -28.3100     6.1360 hc         1 UAZ       0.035367
     27 H11         -8.4890   -29.4810     4.8080 hc         1 UAZ       0.035367
     28 H12         -7.4770   -28.0280     4.7560 hc         1 UAZ       0.035367
     29 H13        -12.0860   -26.3220     4.2740 h1         1 UAZ       0.058950
     30 H14        -13.0970   -27.7630     4.3450 h1         1 UAZ       0.058950
     31 H15        -14.5530   -29.4030    -0.3770 ha         1 UAZ       0.120000
     32 H16        -14.0370   -28.5350     3.2510 hn         1 UAZ       0.143000
     33 H17        -17.9790   -30.8340     2.9390 ha         1 UAZ       0.122500
     34 H18        -19.7550   -32.4110    -0.9490 h1         1 UAZ       0.039700
     35 H19        -18.8780   -30.9710    -1.5070 h1         1 UAZ       0.039700
     36 H20        -18.0120   -32.5140    -1.2770 h1         1 UAZ       0.039700
     37 O1         -18.5350   -31.5120     0.4900 os         1 UAZ      -0.343100
     38 C6         -12.8340   -28.1850     1.6630 c          1 UAZ       0.653100
@<TRIPOS>BOND
     1     1     3 ar  
     2     1    13 ar  
     3     1    17 1   
     4     2    10 ar  
     5     2    15 ar  
     6     2    18 1   
     7     3    10 ar  
     8     3    11 1   
     9     4     7 1   
    10     4     9 1   
    11     4    19 1   
    12     4    20 1   
    13     5     6 1   
    14     5    12 1   
    15     5    21 1   
    16     5    22 1   
    17     6     7 1   
    18     6    23 1   
    19     6    24 1   
    20     7     8 1   
    21     7    25 1   
    22     8    26 1   
    23     8    27 1   
    24     8    28 1   
    25     9    12 1   
    26     9    29 1   
    27     9    30 1   
    28    10    31 1   
    29    11    32 1   
    30    11    38 1   
    31    12    38 1   
    32    13    15 ar  
    33    13    33 1   
    34    14    34 1   
    35    14    35 1   
    36    14    36 1   
    37    14    37 1   
    38    15    37 1   
    39    16    38 2   
@<TRIPOS>SUBSTRUCTURE
     1 UAZ         1 TEMP              0 ****  ****    0 ROOT
