@<TRIPOS>MOLECULE
UB1
   37    38     1     0     0
SMALL
bcc


@<TRIPOS>ATOM
      1 O23         -2.9420    -2.8880     2.2200 o          1 UB1      -0.814300
      2 C22         -3.2680    -1.6940     2.3090 c          1 UB1       0.950200
      3 O24         -4.0840    -1.1760     3.0960 o          1 UB1      -0.814300
      4 C21         -2.6370    -0.7010     1.3600 cc         1 UB1      -0.064700
      5 S20         -3.1620     0.9200     1.5990 ss         1 UB1       0.020200
      6 C19         -2.1810     1.4720     0.3120 cc         1 UB1      -0.079000
      7 BR26        -2.1540     3.2640    -0.1620 br         1 UB1      -0.092100
      8 C18         -1.4900     0.4520    -0.2730 cd         1 UB1       0.005100
      9 BR25        -0.3690     0.7440    -1.7430 br         1 UB1      -0.094100
     10 C17         -1.7310    -0.8170     0.3420 cd         1 UB1      -0.101300
     11 C16         -1.1490    -2.1330    -0.0930 c3         1 UB1       0.159300
     12 N3           0.2610    -2.0700    -0.4610 n          1 UB1      -0.497400
     13 C2           0.6420    -2.4550    -1.7470 c          1 UB1       0.743700
     14 O14         -0.1780    -2.8880    -2.5410 o          1 UB1      -0.661500
     15 C1           2.0420    -2.2980    -2.0550 cc         1 UB1      -0.346400
     16 C13          2.5220    -2.6710    -3.4210 c3         1 UB1       0.008100
     17 C6           2.8540    -1.8010    -1.1040 cd         1 UB1       0.106600
     18 C4           1.1250    -1.6360     0.5240 c          1 UB1       0.805500
     19 O15          0.7320    -1.3810     1.6450 o          1 UB1      -0.588500
     20 N5           2.4370    -1.4950     0.1530 n          1 UB1      -0.350000
     21 C7           3.3600    -0.8510     1.0800 c3         1 UB1       0.123000
     22 C8           3.3280     0.6730     0.9360 c3         1 UB1      -0.012500
     23 N9           3.6710     1.0370    -0.4230 n8         1 UB1      -0.903800
     24 C10          4.2320     1.2760     2.0430 c          1 UB1       0.906600
     25 O11          5.3230     1.7610     1.6850 o          1 UB1      -0.834300
     26 O12          3.7980     1.1850     3.2080 o          1 UB1      -0.834300
     27 H161        -1.2970    -2.8590     0.7010 h1         1 UB1       0.092200
     28 H162        -1.6870    -2.4960    -0.9670 h1         1 UB1       0.092200
     29 H131         2.0150    -2.0950    -4.1970 hc         1 UB1       0.022033
     30 H132         3.5910    -2.4890    -3.5180 hc         1 UB1       0.022033
     31 H133         2.3440    -3.7260    -3.6350 hc         1 UB1       0.022033
     32 H6           3.9090    -1.6540    -1.2850 h4         1 UB1       0.147000
     33 H71          3.1090    -1.1490     2.0940 h1         1 UB1       0.063200
     34 H72          4.3590    -1.2320     0.8600 h1         1 UB1       0.063200
     35 H8           2.3000     0.9930     1.1330 h1         1 UB1       0.072700
     36 HN91         3.2830     1.9440    -0.6430 hn         1 UB1       0.332800
     37 HN92         4.6780     1.1490    -0.4730 hn         1 UB1       0.332800
@<TRIPOS>BOND
     1     1     2 1   
     2     2     3 1   
     3     2     4 1   
     4     4     5 1   
     5     4    10 2   
     6     5     6 1   
     7     6     7 1   
     8     6     8 2   
     9     8     9 1   
    10     8    10 1   
    11    10    11 1   
    12    11    12 1   
    13    11    27 1   
    14    11    28 1   
    15    12    13 1   
    16    12    18 1   
    17    13    14 2   
    18    13    15 1   
    19    15    16 1   
    20    15    17 2   
    21    16    29 1   
    22    16    30 1   
    23    16    31 1   
    24    17    20 1   
    25    17    32 1   
    26    18    19 2   
    27    18    20 1   
    28    20    21 1   
    29    21    22 1   
    30    21    33 1   
    31    21    34 1   
    32    22    23 1   
    33    22    24 1   
    34    22    35 1   
    35    23    36 1   
    36    23    37 1   
    37    24    25 1   
    38    24    26 1   
@<TRIPOS>SUBSTRUCTURE
     1 UB1         1 TEMP              0 ****  ****    0 ROOT
