@<TRIPOS>MOLECULE
UB1
   37    38     1     0     0
SMALL
No Charge or Current Charge


@<TRIPOS>ATOM
      1 O23         -2.6240    -2.8390     2.4610 o          1 UB1      -0.709000
      2 C22         -2.9330    -1.6640     2.5760 c          1 UB1       0.739600
      3 O24         -3.5280    -1.2530     3.5620 o          1 UB1      -0.709000
      4 C21         -2.6370    -0.6920     1.4890 cc         1 UB1      -0.209600
      5 S20         -3.2060     0.9620     1.6600 ss         1 UB1       0.310000
      6 C19         -2.6220     1.3540     0.0590 cc         1 UB1      -0.223900
      7 Br26        -2.8690     3.0740    -0.6800 br         1 UB1      -0.092100
      8 C18         -1.9790     0.2950    -0.5260 cd         1 UB1       0.005100
      9 Br25        -1.2280     0.4180    -2.2600 br         1 UB1      -0.094100
     10 C17         -1.9550    -0.8920     0.2860 cd         1 UB1      -0.101300
     11 C16         -1.2680    -2.1750    -0.1800 c3         1 UB1       0.159300
     12 N3           0.1760    -2.0350    -0.5400 n          1 UB1      -0.363400
     13 C2           0.5860    -2.4410    -1.8200 c          1 UB1       0.601200
     14 O14         -0.1860    -2.9390    -2.6300 o          1 UB1      -0.586000
     15 C1           2.0160    -2.2250    -2.1270 cc         1 UB1      -0.346400
     16 C13          2.4660    -2.6250    -3.5130 c3         1 UB1       0.008100
     17 C6           2.8590    -1.6830    -1.1880 cd         1 UB1       0.056600
     18 C4           1.0520    -1.5310     0.4360 c          1 UB1       0.596000
     19 O15          0.6640    -1.2630     1.5660 o          1 UB1      -0.513000
     20 N5           2.4030    -1.3500     0.0760 n          1 UB1      -0.283000
     21 C7           3.3600    -0.8230     1.0860 c3         1 UB1       0.123000
     22 C8           3.5630     0.7160     1.0250 c3         1 UB1      -0.012500
     23 N9           4.1860     1.1680    -0.2860 n8         1 UB1      -1.014200
     24 C10          4.3020     1.1900     2.3340 c          1 UB1       0.696000
     25 O11          5.4340     0.7740     2.5450 o          1 UB1      -0.729000
     26 O12          3.7490     2.0180     3.0440 o          1 UB1      -0.729000
     27 H161        -1.3180    -2.9550     0.5820 h1         1 UB1       0.092200
     28 H162        -1.8510    -2.5560    -1.0260 h1         1 UB1       0.092200
     29 H131         1.9160    -2.0680    -4.2820 hc         1 UB1       0.022033
     30 H132         3.5340    -2.4220    -3.6590 hc         1 UB1       0.022033
     31 H133         2.3060    -3.6960    -3.6860 hc         1 UB1       0.022033
     32 H6           3.9150    -1.4830    -1.3480 h4         1 UB1       0.197000
     33 H71          3.0220    -1.0970     2.0940 h1         1 UB1       0.063200
     34 H72          4.3300    -1.3180     0.9470 h1         1 UB1       0.063200
     35 H8           2.5600     1.1620     1.0750 h1         1 UB1       0.072700
     36 HN91         4.2100     2.1960    -0.3120 hn         1 UB1       0.388000
     37 HN92         5.1830     0.9150    -0.2820 hn         1 UB1       0.388000
@<TRIPOS>BOND
     1     1     2 1   
     2     2     3 1   
     3     2     4 1   
     4     4     5 1   
     5     4    10 2   
     6     5     6 1   
     7     6     7 1   
     8     6     8 2   
     9     8     9 1   
    10     8    10 1   
    11    10    11 1   
    12    11    12 1   
    13    11    27 1   
    14    11    28 1   
    15    12    13 1   
    16    12    18 1   
    17    13    14 2   
    18    13    15 1   
    19    15    16 1   
    20    15    17 2   
    21    16    29 1   
    22    16    30 1   
    23    16    31 1   
    24    17    20 1   
    25    17    32 1   
    26    18    19 2   
    27    18    20 1   
    28    20    21 1   
    29    21    22 1   
    30    21    33 1   
    31    21    34 1   
    32    22    23 1   
    33    22    24 1   
    34    22    35 1   
    35    23    36 1   
    36    23    37 1   
    37    24    25 1   
    38    24    26 1   
@<TRIPOS>SUBSTRUCTURE
     1 UB1         1 TEMP              0 ****  ****    0 ROOT
