@<TRIPOS>MOLECULE
UB2
   55    55     1     0     0
SMALL
abcg2


@<TRIPOS>ATOM
      1 C3          -6.9030    -1.1690     0.9250 ca         1 UB2      -0.087000
      2 C2          -8.2420    -0.8510     1.0910 ca         1 UB2      -0.123500
      3 C1          -9.0170    -0.5000    -0.0090 ca         1 UB2      -0.119000
      4 H29         -9.0410    -0.1980    -2.1340 ha         1 UB2       0.101500
      5 H28         -6.6570    -0.7520    -2.4220 ha         1 UB2       0.118500
      6 H5          -4.6350    -2.4360    -0.0600 h1         1 UB2       0.049200
      7 H5A         -4.6120    -1.5270    -1.5740 h1         1 UB2       0.049200
      8 C29         -8.4450    -0.4690    -1.2720 ca         1 UB2      -0.123500
      9 C28         -7.1000    -0.7820    -1.4330 ca         1 UB2      -0.087000
     10 C4          -6.3180    -1.1360    -0.3400 ca         1 UB2      -0.072300
     11 C5          -4.8670    -1.4690    -0.5130 c3         1 UB2       0.230900
     12 O6          -4.1190    -0.4350     0.1290 os         1 UB2      -0.474100
     13 C7          -2.7820    -0.5650     0.1350 c          1 UB2       0.631100
     14 O27         -2.1940    -1.4620    -0.4380 o          1 UB2      -0.557000
     15 N8          -2.2170     0.3960     0.8820 ns         1 UB2      -0.442900
     16 C9          -0.7970     0.6780     0.8520 c3         1 UB2      -0.250000
     17 P10         -0.4340     2.0760    -0.2980 p5         1 UB2       1.369300
     18 O12         -1.0050     3.3360     0.3100 o          1 UB2      -0.836000
     19 O11         -0.8590     1.6380    -1.6780 o          1 UB2      -0.836000
     20 N13          1.2600     2.1720    -0.1660 n7         1 UB2      -0.984500
     21 C14          2.1440     1.4230    -1.0250 c3         1 UB2       0.173500
     22 C16          3.4690     1.1880    -0.3110 c          1 UB2       0.599100
     23 O26          3.9910     2.0670     0.3640 o          1 UB2      -0.636100
     24 C15          2.4330     2.1100    -2.3620 c3         1 UB2      -0.118100
     25 N17          4.0130    -0.0230    -0.4920 ns         1 UB2      -0.470900
     26 C18          5.3870    -0.3120    -0.1590 c3         1 UB2      -0.035300
     27 C22          5.6140    -1.8230    -0.1790 c3         1 UB2      -0.067400
     28 C23          4.7210    -2.6390     0.7580 c3         1 UB2      -0.064700
     29 C25          5.0270    -4.1250     0.5940 c3         1 UB2      -0.080100
     30 C24          4.8810    -2.2160     2.2140 c3         1 UB2      -0.080100
     31 C19          6.3900     0.3910    -1.1110 c          1 UB2       0.714000
     32 O21          5.9430     0.8990    -2.1520 o          1 UB2      -0.735500
     33 O20          7.5810     0.3560    -0.7370 o          1 UB2      -0.735500
     34 H3          -6.3090    -1.4480     1.7880 ha         1 UB2       0.118500
     35 H2          -8.6840    -0.8800     2.0790 ha         1 UB2       0.101500
     36 H1         -10.0640    -0.2560     0.1210 ha         1 UB2       0.097000
     37 HN8         -2.8150     1.1290     1.2290 hn         1 UB2       0.315500
     38 H9          -0.4620     0.9220     1.8630 h1         1 UB2       0.061200
     39 H9A         -0.2650    -0.2230     0.5490 h1         1 UB2       0.061200
     40 HN13         1.6240     3.0780     0.0940 hn         1 UB2       0.459000
     41 H14          1.6730     0.4570    -1.2320 h1         1 UB2       0.047700
     42 H15          3.1490     1.5430    -2.9590 hc         1 UB2       0.041700
     43 H15A         1.5060     2.2130    -2.9230 hc         1 UB2       0.041700
     44 H15B         2.8490     3.1060    -2.1970 hc         1 UB2       0.041700
     45 HN17         3.5640    -0.6350    -1.1560 hn         1 UB2       0.288500
     46 H18          5.5760     0.0570     0.8520 h1         1 UB2       0.058700
     47 H22          5.4760    -2.1860    -1.2060 hc         1 UB2       0.039200
     48 H22A         6.6610    -2.0080     0.0740 hc         1 UB2       0.039200
     49 H23          3.6750    -2.4810     0.4710 hc         1 UB2       0.050700
     50 H25          6.0590    -4.3440     0.8790 hc         1 UB2       0.020033
     51 H25A         4.3750    -4.7380     1.2190 hc         1 UB2       0.020033
     52 H25B         4.8940    -4.4500    -0.4400 hc         1 UB2       0.020033
     53 H24          5.9180    -2.3300     2.5410 hc         1 UB2       0.020033
     54 H24A         4.5950    -1.1770     2.3750 hc         1 UB2       0.020033
     55 H24B         4.2590    -2.8280     2.8700 hc         1 UB2       0.020033
@<TRIPOS>BOND
     1     1     2 ar  
     2     1    10 ar  
     3     1    34 1   
     4     2     3 ar  
     5     2    35 1   
     6     3     8 ar  
     7     3    36 1   
     8     4     8 1   
     9     5     9 1   
    10     6    11 1   
    11     7    11 1   
    12     8     9 ar  
    13     9    10 ar  
    14    10    11 1   
    15    11    12 1   
    16    12    13 1   
    17    13    14 2   
    18    13    15 1   
    19    15    16 1   
    20    15    37 1   
    21    16    17 1   
    22    16    38 1   
    23    16    39 1   
    24    17    18 1   
    25    17    19 1   
    26    17    20 1   
    27    20    21 1   
    28    20    40 1   
    29    21    22 1   
    30    21    24 1   
    31    21    41 1   
    32    22    23 2   
    33    22    25 1   
    34    24    42 1   
    35    24    43 1   
    36    24    44 1   
    37    25    26 1   
    38    25    45 1   
    39    26    27 1   
    40    26    31 1   
    41    26    46 1   
    42    27    28 1   
    43    27    47 1   
    44    27    48 1   
    45    28    29 1   
    46    28    30 1   
    47    28    49 1   
    48    29    50 1   
    49    29    51 1   
    50    29    52 1   
    51    30    53 1   
    52    30    54 1   
    53    30    55 1   
    54    31    32 1   
    55    31    33 1   
@<TRIPOS>SUBSTRUCTURE
     1 UB2         1 TEMP              0 ****  ****    0 ROOT
