@<TRIPOS>MOLECULE
UB2
   55    55     1     0     0
SMALL
No Charge or Current Charge


@<TRIPOS>ATOM
      1 C3          -7.3470    -1.7820    -1.0510 ca         1 UB2      -0.087000
      2 C2          -8.5730    -2.1610    -0.4760 ca         1 UB2      -0.123500
      3 C1          -9.3720    -1.2050     0.1710 ca         1 UB2      -0.119000
      4 H29         -9.5630     0.8730     0.7470 ha         1 UB2       0.101500
      5 H28         -7.3950     1.5480    -0.2650 ha         1 UB2       0.118500
      6 H5          -5.4750    -0.5330    -2.5810 h1         1 UB2       0.049200
      7 H5A         -5.5860     1.0520    -1.7890 h1         1 UB2       0.049200
      8 C29         -8.9450     0.1310     0.2450 ca         1 UB2      -0.123500
      9 C28         -7.7190     0.5120    -0.3280 ca         1 UB2      -0.087000
     10 C4          -6.9130    -0.4420    -0.9820 ca         1 UB2      -0.072300
     11 C5          -5.5880    -0.0310    -1.6100 c3         1 UB2       0.230900
     12 O6          -4.5220    -0.4020    -0.7200 os         1 UB2      -0.474100
     13 C7          -3.2520    -0.0940    -1.1010 c          1 UB2       0.631100
     14 O27         -2.9340     0.4710    -2.1360 o          1 UB2      -0.557000
     15 N8          -2.3790    -0.5440    -0.1430 ns         1 UB2      -0.442900
     16 C9          -0.9020    -0.3470    -0.1680 c3         1 UB2      -0.250000
     17 P10         -0.2560     1.1950     0.6430 p5         1 UB2       1.369300
     18 O12         -0.5140     1.2700     2.1070 o          1 UB2      -0.836000
     19 O11         -0.6320     2.4420    -0.0750 o          1 UB2      -0.836000
     20 N13          1.3590     0.9800     0.4670 n7         1 UB2      -0.984500
     21 C14          2.1140     0.7440    -0.8060 c3         1 UB2       0.173500
     22 C16          3.6600     0.5630    -0.5680 c          1 UB2       0.599100
     23 O26          4.3660     1.4420    -0.0820 o          1 UB2      -0.636100
     24 C15          1.8690     1.8670    -1.8410 c3         1 UB2      -0.118100
     25 N17          4.1730    -0.6660    -0.9460 ns         1 UB2      -0.470900
     26 C18          5.5860    -1.1010    -0.8040 c3         1 UB2      -0.035300
     27 C22          5.7820    -2.0270     0.4290 c3         1 UB2      -0.067400
     28 C23          5.5650    -1.3670     1.8200 c3         1 UB2      -0.064700
     29 C25          5.5450    -2.4340     2.9390 c3         1 UB2      -0.080100
     30 C24          6.6150    -0.2730     2.1340 c3         1 UB2      -0.080100
     31 C19          6.0690    -1.8010    -2.1140 c          1 UB2       0.714000
     32 O21          5.3990    -2.7180    -2.5700 o          1 UB2      -0.735500
     33 O20          7.0570    -1.3520    -2.6780 o          1 UB2      -0.735500
     34 H3          -6.7310    -2.5280    -1.5490 ha         1 UB2       0.118500
     35 H2          -8.9020    -3.1960    -0.5320 ha         1 UB2       0.101500
     36 H1         -10.3210    -1.4980     0.6150 ha         1 UB2       0.097000
     37 HN8         -2.8090    -0.9890     0.6610 hn         1 UB2       0.315500
     38 H9          -0.4200    -1.1890     0.3400 h1         1 UB2       0.061200
     39 H9A         -0.5590    -0.3260    -1.2090 h1         1 UB2       0.061200
     40 HN13         1.6470     1.8790     0.8450 hn         1 UB2       0.459000
     41 H14          1.7630    -0.1930    -1.2590 h1         1 UB2       0.047700
     42 H15          2.5080     1.7150    -2.7190 hc         1 UB2       0.041700
     43 H15A         0.8310     1.8660    -2.1910 hc         1 UB2       0.041700
     44 H15B         2.1010     2.8520    -1.4190 hc         1 UB2       0.041700
     45 HN17         3.5180    -1.3260    -1.3510 hn         1 UB2       0.288500
     46 H18          6.2170    -0.2120    -0.6830 h1         1 UB2       0.058700
     47 H22          5.1000    -2.8810     0.3280 hc         1 UB2       0.039200
     48 H22A         6.7970    -2.4420     0.3960 hc         1 UB2       0.039200
     49 H23          4.5780    -0.8890     1.8210 hc         1 UB2       0.050700
     50 H25          6.5070    -2.9570     2.9970 hc         1 UB2       0.020033
     51 H25A         5.3450    -1.9710     3.9130 hc         1 UB2       0.020033
     52 H25B         4.7610    -3.1770     2.7520 hc         1 UB2       0.020033
     53 H24          7.6290    -0.6900     2.1210 hc         1 UB2       0.020033
     54 H24A         6.5720     0.5440     1.4050 hc         1 UB2       0.020033
     55 H24B         6.4360     0.1600     3.1250 hc         1 UB2       0.020033
@<TRIPOS>BOND
     1     1     2 ar  
     2     1    10 ar  
     3     1    34 1   
     4     2     3 ar  
     5     2    35 1   
     6     3     8 ar  
     7     3    36 1   
     8     4     8 1   
     9     5     9 1   
    10     6    11 1   
    11     7    11 1   
    12     8     9 ar  
    13     9    10 ar  
    14    10    11 1   
    15    11    12 1   
    16    12    13 1   
    17    13    14 2   
    18    13    15 1   
    19    15    16 1   
    20    15    37 1   
    21    16    17 1   
    22    16    38 1   
    23    16    39 1   
    24    17    18 1   
    25    17    19 1   
    26    17    20 1   
    27    20    21 1   
    28    20    40 1   
    29    21    22 1   
    30    21    24 1   
    31    21    41 1   
    32    22    23 2   
    33    22    25 1   
    34    24    42 1   
    35    24    43 1   
    36    24    44 1   
    37    25    26 1   
    38    25    45 1   
    39    26    27 1   
    40    26    31 1   
    41    26    46 1   
    42    27    28 1   
    43    27    47 1   
    44    27    48 1   
    45    28    29 1   
    46    28    30 1   
    47    28    49 1   
    48    29    50 1   
    49    29    51 1   
    50    29    52 1   
    51    30    53 1   
    52    30    54 1   
    53    30    55 1   
    54    31    32 1   
    55    31    33 1   
@<TRIPOS>SUBSTRUCTURE
     1 UB2         1 TEMP              0 ****  ****    0 ROOT
