@<TRIPOS>MOLECULE
UB3
   61    61     1     0     0
SMALL
abcg2


@<TRIPOS>ATOM
      1 C7           1.9280     0.5640     0.0950 c          1 UB3       0.632100
      2 O29          1.2490     1.1490    -0.7240 o          1 UB3      -0.550000
      3 O6           3.2500     0.7660     0.2360 os         1 UB3      -0.475100
      4 C5           3.8290     1.7840    -0.5830 c3         1 UB3       0.229900
      5 C4           5.2950     1.8270    -0.2690 ca         1 UB3      -0.072300
      6 C30          5.7440     2.4200     0.9080 ca         1 UB3      -0.086500
      7 C31          7.0980     2.4540     1.2080 ca         1 UB3      -0.124000
      8 C1           8.0200     1.8950     0.3300 ca         1 UB3      -0.120000
      9 C2           7.5810     1.3030    -0.8460 ca         1 UB3      -0.124000
     10 C3           6.2230     1.2680    -1.1400 ca         1 UB3      -0.086500
     11 N8           1.4840    -0.3250     0.9980 ns         1 UB3      -0.438900
     12 C9           0.1630    -0.9090     0.9200 c3         1 UB3      -0.271000
     13 P10          0.1920    -2.5430     0.0530 p5         1 UB3       1.347300
     14 O12          0.8190    -3.5530     0.9820 o          1 UB3      -0.826000
     15 O11          0.7610    -2.3110    -1.3240 o          1 UB3      -0.826000
     16 N13         -1.4530    -2.9650    -0.1120 n7         1 UB3      -0.946500
     17 C14         -2.3370    -2.1440    -0.9140 c3         1 UB3       0.154500
     18 C18         -3.1390    -1.2000    -0.0150 c          1 UB3       0.570100
     19 O28         -3.5940    -1.5860     1.0580 o          1 UB3      -0.654100
     20 C15         -3.2470    -3.0020    -1.8180 c3         1 UB3      -0.047700
     21 C16         -4.1630    -3.9420    -1.0430 c3         1 UB3      -0.090600
     22 C17         -4.0410    -2.1430    -2.7970 c3         1 UB3      -0.090600
     23 N19         -3.2600     0.0600    -0.4460 ns         1 UB3      -0.458900
     24 C20         -4.0220     1.0730     0.2450 c3         1 UB3      -0.033300
     25 C21         -5.5410     1.0260    -0.0650 c          1 UB3       0.716000
     26 O22         -5.9380     0.2550    -0.9540 o          1 UB3      -0.738000
     27 C24         -3.4470     2.4550    -0.0680 c3         1 UB3      -0.068400
     28 C25         -1.9570     2.6300     0.2400 c3         1 UB3      -0.069700
     29 C26         -1.5180     4.0470    -0.1160 c3         1 UB3      -0.076600
     30 C27         -1.6240     2.3120     1.6930 c3         1 UB3      -0.076600
     31 O23         -6.2370     1.7970     0.6270 o          1 UB3      -0.738000
     32 H5           3.3630     2.7480    -0.3670 h1         1 UB3       0.050200
     33 H5A          3.6700     1.5630    -1.6410 h1         1 UB3       0.050200
     34 H30          5.0320     2.8660     1.5930 ha         1 UB3       0.119500
     35 H31          7.4360     2.9200     2.1240 ha         1 UB3       0.101000
     36 H1           9.0770     1.9260     0.5620 ha         1 UB3       0.096000
     37 H2           8.2930     0.8700    -1.5360 ha         1 UB3       0.101000
     38 H3           5.8860     0.8060    -2.0610 ha         1 UB3       0.119500
     39 HN8          2.1680    -0.8080     1.5580 hn         1 UB3       0.313500
     40 H9          -0.2390    -1.0210     1.9300 h1         1 UB3       0.065700
     41 H9A         -0.4890    -0.2110     0.3990 h1         1 UB3       0.065700
     42 HN13        -1.8930    -3.2660     0.7480 hn         1 UB3       0.446000
     43 H14         -1.7140    -1.5480    -1.5890 h1         1 UB3       0.064700
     44 H15         -2.5490    -3.6190    -2.3950 hc         1 UB3       0.041700
     45 H16         -4.9120    -3.3970    -0.4660 hc         1 UB3       0.030700
     46 H16A        -4.6960    -4.5990    -1.7320 hc         1 UB3       0.030700
     47 H16B        -3.6040    -4.5790    -0.3560 hc         1 UB3       0.030700
     48 H17         -3.3820    -1.5090    -3.3940 hc         1 UB3       0.030700
     49 H17A        -4.6030    -2.7710    -3.4900 hc         1 UB3       0.030700
     50 H17B        -4.7500    -1.4920    -2.2830 hc         1 UB3       0.030700
     51 HN19        -2.9240     0.2770    -1.3700 hn         1 UB3       0.299500
     52 H20         -3.9110     0.8890     1.3170 h1         1 UB3       0.061700
     53 H24         -3.6190     2.6870    -1.1260 hc         1 UB3       0.036700
     54 H24A        -4.0210     3.1890     0.5030 hc         1 UB3       0.036700
     55 H25         -1.3820     1.9440    -0.3880 hc         1 UB3       0.069700
     56 H26         -2.0350     4.7890     0.4960 hc         1 UB3       0.019533
     57 H26A        -0.4450     4.1750     0.0410 hc         1 UB3       0.019533
     58 H26B        -1.7280     4.2770    -1.1630 hc         1 UB3       0.019533
     59 H27         -1.8260     1.2690     1.9370 hc         1 UB3       0.019533
     60 H27A        -0.5660     2.4880     1.8930 hc         1 UB3       0.019533
     61 H27B        -2.2030     2.9340     2.3800 hc         1 UB3       0.019533
@<TRIPOS>BOND
     1     1     2 2   
     2     1     3 1   
     3     1    11 1   
     4     3     4 1   
     5     4     5 1   
     6     4    32 1   
     7     4    33 1   
     8     5     6 ar  
     9     5    10 ar  
    10     6     7 ar  
    11     6    34 1   
    12     7     8 ar  
    13     7    35 1   
    14     8     9 ar  
    15     8    36 1   
    16     9    10 ar  
    17     9    37 1   
    18    10    38 1   
    19    11    12 1   
    20    11    39 1   
    21    12    13 1   
    22    12    40 1   
    23    12    41 1   
    24    13    14 1   
    25    13    15 1   
    26    13    16 1   
    27    16    17 1   
    28    16    42 1   
    29    17    18 1   
    30    17    20 1   
    31    17    43 1   
    32    18    19 2   
    33    18    23 1   
    34    20    21 1   
    35    20    22 1   
    36    20    44 1   
    37    21    45 1   
    38    21    46 1   
    39    21    47 1   
    40    22    48 1   
    41    22    49 1   
    42    22    50 1   
    43    23    24 1   
    44    23    51 1   
    45    24    25 1   
    46    24    27 1   
    47    24    52 1   
    48    25    26 1   
    49    25    31 1   
    50    27    28 1   
    51    27    53 1   
    52    27    54 1   
    53    28    29 1   
    54    28    30 1   
    55    28    55 1   
    56    29    56 1   
    57    29    57 1   
    58    29    58 1   
    59    30    59 1   
    60    30    60 1   
    61    30    61 1   
@<TRIPOS>SUBSTRUCTURE
     1 UB3         1 TEMP              0 ****  ****    0 ROOT
