@<TRIPOS>MOLECULE
UB3
   61    61     1     0     0
SMALL
No Charge or Current Charge


@<TRIPOS>ATOM
      1 C7           2.0510     0.4590    -0.5380 c          1 UB3       0.632100
      2 O29          1.5230     0.9750    -1.5110 o          1 UB3      -0.550000
      3 O6           3.2700     0.7870    -0.0300 os         1 UB3      -0.475100
      4 C5           4.0030     1.8310    -0.6900 c3         1 UB3       0.229900
      5 C4           5.3170     2.0430     0.0490 ca         1 UB3      -0.072300
      6 C30          5.3870     2.9430     1.1320 ca         1 UB3      -0.086500
      7 C31          6.6000     3.1410     1.8130 ca         1 UB3      -0.124000
      8 C1           7.7520     2.4400     1.4180 ca         1 UB3      -0.120000
      9 C2           7.6890     1.5400     0.3410 ca         1 UB3      -0.124000
     10 C3           6.4750     1.3410    -0.3410 ca         1 UB3      -0.086500
     11 N8           1.4960    -0.5250     0.2420 ns         1 UB3      -0.438900
     12 C9           0.1610    -1.1450     0.0200 c3         1 UB3      -0.271000
     13 P10          0.0740    -2.5660    -1.1670 p5         1 UB3       1.347300
     14 O12          0.9670    -3.6760    -0.7340 o          1 UB3      -0.826000
     15 O11          0.2240    -2.1370    -2.5850 o          1 UB3      -0.826000
     16 N13         -1.4730    -3.0690    -0.9320 n7         1 UB3      -0.946500
     17 C14         -2.6970    -2.2510    -1.2030 c3         1 UB3       0.154500
     18 C18         -3.0350    -1.1910    -0.0870 c          1 UB3       0.570100
     19 O28         -2.9500    -1.4390     1.1120 o          1 UB3      -0.654100
     20 C15         -3.9010    -3.2080    -1.4830 c3         1 UB3      -0.047700
     21 C16         -4.3030    -4.0940    -0.2750 c3         1 UB3      -0.090600
     22 C17         -5.1300    -2.4490    -2.0380 c3         1 UB3      -0.090600
     23 N19         -3.3950     0.0630    -0.5510 ns         1 UB3      -0.458900
     24 C20         -3.7990     1.2080     0.3040 c3         1 UB3      -0.033300
     25 C21         -5.3510     1.3850     0.2760 c          1 UB3       0.716000
     26 O22         -5.9080     1.5180    -0.8060 o          1 UB3      -0.738000
     27 C24         -3.0740     2.5230    -0.0950 c3         1 UB3      -0.068400
     28 C25         -1.5200     2.4860    -0.0560 c3         1 UB3      -0.069700
     29 C26         -0.9220     3.8190    -0.5600 c3         1 UB3      -0.076600
     30 C27         -0.9610     2.1310     1.3430 c3         1 UB3      -0.076600
     31 O23         -5.9590     1.3260     1.3360 o          1 UB3      -0.738000
     32 H5           3.4290     2.7680    -0.6900 h1         1 UB3       0.050200
     33 H5A          4.2080     1.5620    -1.7350 h1         1 UB3       0.050200
     34 H30          4.4980     3.4880     1.4450 ha         1 UB3       0.119500
     35 H31          6.6480     3.8360     2.6480 ha         1 UB3       0.101000
     36 H1           8.6910     2.5930     1.9450 ha         1 UB3       0.096000
     37 H2           8.5790     0.9950     0.0350 ha         1 UB3       0.101000
     38 H3           6.4340     0.6410    -1.1730 ha         1 UB3       0.119500
     39 HN8          2.0760    -0.8470     1.0090 hn         1 UB3       0.313500
     40 H9          -0.2230    -1.5060     0.9810 h1         1 UB3       0.065700
     41 H9A         -0.5210    -0.3840    -0.3670 h1         1 UB3       0.065700
     42 HN13        -1.4650    -3.3400     0.0480 hn         1 UB3       0.446000
     43 H14         -2.5320    -1.6850    -2.1300 h1         1 UB3       0.064700
     44 H15         -3.5790    -3.8910    -2.2800 hc         1 UB3       0.041700
     45 H16         -4.6930    -3.4880     0.5510 hc         1 UB3       0.030700
     46 H16A        -5.0860    -4.8040    -0.5680 hc         1 UB3       0.030700
     47 H16B        -3.4510    -4.6760     0.0940 hc         1 UB3       0.030700
     48 H17         -4.8540    -1.8490    -2.9130 hc         1 UB3       0.030700
     49 H17A        -5.9100    -3.1550    -2.3480 hc         1 UB3       0.030700
     50 H17B        -5.5590    -1.7810    -1.2820 hc         1 UB3       0.030700
     51 HN19        -3.4570     0.1780    -1.5550 hn         1 UB3       0.299500
     52 H20         -3.5340     0.9800     1.3440 h1         1 UB3       0.061700
     53 H24         -3.3910     2.8000    -1.1080 hc         1 UB3       0.036700
     54 H24A        -3.4250     3.3250     0.5660 hc         1 UB3       0.036700
     55 H25         -1.1860     1.7110    -0.7550 hc         1 UB3       0.069700
     56 H26         -1.2110     4.6500     0.0950 hc         1 UB3       0.019533
     57 H26A         0.1730     3.7670    -0.5860 hc         1 UB3       0.019533
     58 H26B        -1.2720     4.0420    -1.5750 hc         1 UB3       0.019533
     59 H27         -1.2720     1.1260     1.6520 hc         1 UB3       0.019533
     60 H27A         0.1360     2.1470     1.3360 hc         1 UB3       0.019533
     61 H27B        -1.3090     2.8470     2.0970 hc         1 UB3       0.019533
@<TRIPOS>BOND
     1     1     2 2   
     2     1     3 1   
     3     1    11 1   
     4     3     4 1   
     5     4     5 1   
     6     4    32 1   
     7     4    33 1   
     8     5     6 ar  
     9     5    10 ar  
    10     6     7 ar  
    11     6    34 1   
    12     7     8 ar  
    13     7    35 1   
    14     8     9 ar  
    15     8    36 1   
    16     9    10 ar  
    17     9    37 1   
    18    10    38 1   
    19    11    12 1   
    20    11    39 1   
    21    12    13 1   
    22    12    40 1   
    23    12    41 1   
    24    13    14 1   
    25    13    15 1   
    26    13    16 1   
    27    16    17 1   
    28    16    42 1   
    29    17    18 1   
    30    17    20 1   
    31    17    43 1   
    32    18    19 2   
    33    18    23 1   
    34    20    21 1   
    35    20    22 1   
    36    20    44 1   
    37    21    45 1   
    38    21    46 1   
    39    21    47 1   
    40    22    48 1   
    41    22    49 1   
    42    22    50 1   
    43    23    24 1   
    44    23    51 1   
    45    24    25 1   
    46    24    27 1   
    47    24    52 1   
    48    25    26 1   
    49    25    31 1   
    50    27    28 1   
    51    27    53 1   
    52    27    54 1   
    53    28    29 1   
    54    28    30 1   
    55    28    55 1   
    56    29    56 1   
    57    29    57 1   
    58    29    58 1   
    59    30    59 1   
    60    30    60 1   
    61    30    61 1   
@<TRIPOS>SUBSTRUCTURE
     1 UB3         1 TEMP              0 ****  ****    0 ROOT
