@<TRIPOS>MOLECULE
UB5
   39    39     1     0     0
SMALL
abcg2


@<TRIPOS>ATOM
      1 C4         -15.0960   -29.7730     2.5090 c3         1 UB5      -0.090400
      2 C5         -14.0250   -29.1870     1.6000 c3         1 UB5       0.106000
      3 C6         -11.9840   -27.8510     1.8260 c          1 UB5       0.652100
      4 C11         -8.5680   -27.2100     2.8410 c6         1 UB5      -0.091400
      5 C7         -10.9850   -27.7030     4.0890 c6         1 UB5       0.115000
      6 C8         -10.0700   -26.7150     4.7950 c6         1 UB5      -0.091400
      7 C9          -8.6130   -26.8230     4.3300 c6         1 UB5      -0.058700
      8 C10         -7.8660   -25.5240     4.6020 c3         1 UB5      -0.088100
      9 C12         -9.8200   -26.7700     2.1000 c6         1 UB5       0.115000
     10 N1         -12.9440   -28.6400     2.3910 ns         1 UB5      -0.516900
     11 N2         -10.9810   -27.4490     2.6550 n          1 UB5      -0.436800
     12 C3         -16.2410   -30.4290     1.7460 c3         1 UB5      -0.071400
     13 C1         -18.2570   -30.1420     0.2380 c3         1 UB5      -0.089100
     14 C2         -17.0550   -29.4680     0.8850 c3         1 UB5      -0.078400
     15 O1         -12.0420   -27.5060     0.6470 o          1 UB5      -0.646100
     16 H1         -14.6370   -30.5170     3.1690 hc         1 UB5       0.040200
     17 H2         -15.4900   -28.9840     3.1570 hc         1 UB5       0.040200
     18 H3         -14.4470   -28.3900     0.9880 h1         1 UB5       0.050700
     19 H4         -13.6700   -29.9620     0.9090 h1         1 UB5       0.050700
     20 H5          -8.4690   -28.2930     2.7330 hc         1 UB5       0.049450
     21 H6          -7.6920   -26.7730     2.3570 hc         1 UB5       0.049450
     22 H7         -11.9980   -27.5880     4.4780 h1         1 UB5       0.045950
     23 H8         -10.6660   -28.7300     4.3150 h1         1 UB5       0.045950
     24 H9         -10.1390   -26.8780     5.8730 hc         1 UB5       0.049450
     25 H10        -10.4460   -25.7030     4.6140 hc         1 UB5       0.049450
     26 H11         -8.1310   -27.6210     4.9030 hc         1 UB5       0.046700
     27 H12         -7.9400   -25.2340     5.6520 hc         1 UB5       0.034700
     28 H13         -6.8070   -25.6170     4.3560 hc         1 UB5       0.034700
     29 H14         -8.2750   -24.7060     4.0040 hc         1 UB5       0.034700
     30 H15         -9.9340   -25.6810     2.1590 h1         1 UB5       0.045950
     31 H16         -9.7360   -27.0190     1.0440 h1         1 UB5       0.045950
     32 H17        -12.7140   -29.1540     3.2250 hn         1 UB5       0.299500
     33 H18        -16.9100   -30.9080     2.4670 hc         1 UB5       0.039700
     34 H19        -15.8490   -31.2360     1.1180 hc         1 UB5       0.039700
     35 H20        -18.8190   -29.4460    -0.3860 hc         1 UB5       0.031367
     36 H21        -17.9480   -30.9770    -0.3930 hc         1 UB5       0.031367
     37 H22        -18.9410   -30.5360     0.9920 hc         1 UB5       0.031367
     38 H23        -16.4230   -29.0350     0.1050 hc         1 UB5       0.041200
     39 H24        -17.3920   -28.6290     1.5020 hc         1 UB5       0.041200
@<TRIPOS>BOND
     1     1     2 1   
     2     1    12 1   
     3     1    16 1   
     4     1    17 1   
     5     2    10 1   
     6     2    18 1   
     7     2    19 1   
     8     3    10 1   
     9     3    11 1   
    10     3    15 2   
    11     4     7 1   
    12     4     9 1   
    13     4    20 1   
    14     4    21 1   
    15     5     6 1   
    16     5    11 1   
    17     5    22 1   
    18     5    23 1   
    19     6     7 1   
    20     6    24 1   
    21     6    25 1   
    22     7     8 1   
    23     7    26 1   
    24     8    27 1   
    25     8    28 1   
    26     8    29 1   
    27     9    11 1   
    28     9    30 1   
    29     9    31 1   
    30    10    32 1   
    31    12    14 1   
    32    12    33 1   
    33    12    34 1   
    34    13    14 1   
    35    13    35 1   
    36    13    36 1   
    37    13    37 1   
    38    14    38 1   
    39    14    39 1   
@<TRIPOS>SUBSTRUCTURE
     1 UB5         1 TEMP              0 ****  ****    0 ROOT
