@<TRIPOS>MOLECULE
UB5
   39    39     1     0     0
SMALL
No Charge or Current Charge


@<TRIPOS>ATOM
      1 C4         -15.1150   -29.7150     2.5280 c3         1 UB5      -0.090400
      2 C5         -14.0660   -29.1710     1.5360 c3         1 UB5       0.106000
      3 C6         -11.8990   -27.9100     1.6060 c          1 UB5       0.652100
      4 C11         -8.4830   -26.6110     2.7310 c6         1 UB5      -0.091400
      5 C7         -11.1940   -27.1470     3.9210 c6         1 UB5       0.115000
      6 C8         -10.0750   -26.4040     4.6870 c6         1 UB5      -0.091400
      7 C9          -8.7000   -26.9290     4.2340 c6         1 UB5      -0.058700
      8 C10         -7.5400   -26.3880     5.1110 c3         1 UB5      -0.088100
      9 C12         -9.7890   -26.5600     1.8850 c6         1 UB5       0.115000
     10 N1         -12.9770   -28.4870     2.2310 ns         1 UB5      -0.516900
     11 N2         -10.9560   -27.2990     2.4530 n          1 UB5      -0.436800
     12 C3         -16.2570   -30.5200     1.8630 c3         1 UB5      -0.071400
     13 C1         -18.3320   -30.4990     0.3400 c3         1 UB5      -0.089100
     14 C2         -17.1620   -29.6860     0.9260 c3         1 UB5      -0.078400
     15 O1         -11.7750   -27.9340     0.3910 o          1 UB5      -0.646100
     16 H1         -14.6100   -30.3660     3.2520 hc         1 UB5       0.040200
     17 H2         -15.5440   -28.8810     3.0980 hc         1 UB5       0.040200
     18 H3         -14.5370   -28.4630     0.8430 h1         1 UB5       0.050700
     19 H4         -13.6470   -30.0010     0.9520 h1         1 UB5       0.050700
     20 H5          -7.8100   -27.3690     2.3070 hc         1 UB5       0.049450
     21 H6          -7.9600   -25.6520     2.6140 hc         1 UB5       0.049450
     22 H7         -12.1470   -26.6230     4.0860 h1         1 UB5       0.045950
     23 H8         -11.2940   -28.1520     4.3570 h1         1 UB5       0.045950
     24 H9         -10.2110   -26.5500     5.7670 hc         1 UB5       0.049450
     25 H10        -10.1460   -25.3220     4.5040 hc         1 UB5       0.049450
     26 H11         -8.6930   -28.0220     4.3610 hc         1 UB5       0.046700
     27 H12         -7.6740   -26.6720     6.1620 hc         1 UB5       0.034700
     28 H13         -6.5750   -26.7900     4.7810 hc         1 UB5       0.034700
     29 H14         -7.4810   -25.2940     5.0670 hc         1 UB5       0.034700
     30 H15        -10.0900   -25.5070     1.7820 h1         1 UB5       0.045950
     31 H16         -9.5600   -26.9180     0.8720 h1         1 UB5       0.045950
     32 H17        -13.0050   -28.4320     3.2390 hn         1 UB5       0.299500
     33 H18        -16.8770   -30.9580     2.6550 hc         1 UB5       0.039700
     34 H19        -15.8270   -31.3590     1.3020 hc         1 UB5       0.039700
     35 H20        -18.9440   -29.8700    -0.3170 hc         1 UB5       0.031367
     36 H21        -17.9590   -31.3470    -0.2470 hc         1 UB5       0.031367
     37 H22        -18.9750   -30.8870     1.1390 hc         1 UB5       0.031367
     38 H23        -16.5680   -29.2820     0.0980 hc         1 UB5       0.041200
     39 H24        -17.5660   -28.8280     1.4790 hc         1 UB5       0.041200
@<TRIPOS>BOND
     1     1     2 1   
     2     1    12 1   
     3     1    16 1   
     4     1    17 1   
     5     2    10 1   
     6     2    18 1   
     7     2    19 1   
     8     3    10 1   
     9     3    11 1   
    10     3    15 2   
    11     4     7 1   
    12     4     9 1   
    13     4    20 1   
    14     4    21 1   
    15     5     6 1   
    16     5    11 1   
    17     5    22 1   
    18     5    23 1   
    19     6     7 1   
    20     6    24 1   
    21     6    25 1   
    22     7     8 1   
    23     7    26 1   
    24     8    27 1   
    25     8    28 1   
    26     8    29 1   
    27     9    11 1   
    28     9    30 1   
    29     9    31 1   
    30    10    32 1   
    31    12    14 1   
    32    12    33 1   
    33    12    34 1   
    34    13    14 1   
    35    13    35 1   
    36    13    36 1   
    37    13    37 1   
    38    14    38 1   
    39    14    39 1   
@<TRIPOS>SUBSTRUCTURE
     1 UB5         1 TEMP              0 ****  ****    0 ROOT
