@<TRIPOS>MOLECULE
UB6
   69    73     1     0     0
SMALL
No Charge or Current Charge


@<TRIPOS>ATOM
      1 C10        -18.2130   -11.0480     7.2340 c5         1 UB6       0.099700
      2 C20        -15.8820   -17.3670     6.4170 ca         1 UB6       0.170600
      3 C21        -17.0700   -16.6560     6.4180 ca         1 UB6      -0.224800
      4 C22        -17.1600   -15.2940     6.8000 cc         1 UB6       0.136400
      5 C24        -14.7690   -15.3390     7.3250 c          1 UB6       0.625000
      6 C28        -12.5980   -17.4870     7.8710 ca         1 UB6       0.364900
      7 C01        -18.3280   -14.5060    10.6700 c3         1 UB6      -0.081100
      8 C02        -17.7040   -13.1720    11.1370 c3         1 UB6      -0.157400
      9 O04        -19.1620   -11.4990    10.1810 o          1 UB6      -0.594100
     10 N05        -17.0200   -11.6140     9.3710 ns         1 UB6      -0.513900
     11 C06        -17.2740   -10.5370     8.3950 c5         1 UB6       0.094700
     12 C07        -15.9310   -10.3130     7.6590 c5         1 UB6      -0.096400
     13 C08        -16.4430    -9.4750     6.4610 c5         1 UB6      -0.079400
     14 C09        -17.7010   -10.2670     5.9720 c5         1 UB6      -0.102400
     15 N11        -17.8800   -12.4620     6.9380 ns         1 UB6      -0.504900
     16 C12        -18.9000   -13.3940     6.9070 c          1 UB6       0.643300
     17 O13        -20.0800   -13.0920     7.0130 o          1 UB6      -0.584100
     18 C14        -18.4510   -14.7920     6.6850 cd         1 UB6      -0.199600
     19 S15        -19.6150   -16.0880     6.2180 ss         1 UB6      -0.026900
     20 C16        -18.2620   -17.2350     6.0750 ca         1 UB6       0.429300
     21 N17        -18.3800   -18.5300     5.7210 nb         1 UB6      -0.653000
     22 C18        -17.2360   -19.2610     5.7240 ca         1 UB6       0.390900
     23 C19        -15.9770   -18.7290     6.0750 ca         1 UB6      -0.226000
     24 N23        -16.0000   -14.7230     7.2880 ns         1 UB6      -0.512600
     25 N26        -14.6900   -16.6750     6.8420 n          1 UB6      -0.225200
     26 C27        -13.4200   -17.3580     6.7280 ca         1 UB6      -0.033400
     27 N29        -11.4020   -18.1190     7.8720 nb         1 UB6      -0.664000
     28 C30        -10.9620   -18.6370     6.7060 ca         1 UB6       0.373300
     29 C31        -11.6860   -18.5200     5.5080 ca         1 UB6      -0.163000
     30 C32        -12.9310   -17.8660     5.4970 ca         1 UB6      -0.012300
     31 C33        -13.6450   -17.6660     4.1610 c3         1 UB6      -0.054800
     32 C34         -9.6150   -19.3470     6.7400 c3         1 UB6      -0.133700
     33 C35         -9.6990   -20.8700     6.4470 c3         1 UB6      -0.058700
     34 C36        -10.5860   -21.6160     7.4720 c3         1 UB6      -0.088100
     35 C37         -8.2920   -21.5020     6.3680 c3         1 UB6      -0.088100
     36 H101       -19.2740   -10.8600     7.4530 h1         1 UB6       0.114700
     37 H281       -12.9260   -17.0950     8.8330 h4         1 UB6       0.031100
     38 H1         -18.0800   -15.3120    11.3710 hc         1 UB6       0.043700
     39 H2         -19.4200   -14.4260    10.6110 hc         1 UB6       0.043700
     40 H3         -17.9490   -14.7870     9.6800 hc         1 UB6       0.043700
     41 H021       -16.6160   -13.3040    11.1860 hc         1 UB6       0.059700
     42 H022       -18.0960   -12.9400    12.1340 hc         1 UB6       0.059700
     43 H051       -16.1140   -12.0430     9.5170 hn         1 UB6       0.310500
     44 H061       -17.6500    -9.6110     8.8540 h1         1 UB6       0.074700
     45 H071       -15.4530   -11.2430     7.3280 hc         1 UB6       0.046200
     46 H072       -15.2040    -9.7660     8.2700 hc         1 UB6       0.046200
     47 H081       -15.6880    -9.3690     5.6730 hc         1 UB6       0.046700
     48 H082       -16.7160    -8.4610     6.7790 hc         1 UB6       0.046700
     49 H091       -18.4680    -9.5790     5.5980 hc         1 UB6       0.061200
     50 H092       -17.4540   -10.9280     5.1320 hc         1 UB6       0.061200
     51 H111       -16.9760   -12.7610     6.6050 hn         1 UB6       0.305500
     52 H181       -17.3350   -20.3110     5.4520 h4         1 UB6       0.026100
     53 H191       -15.1110   -19.3830     6.0910 ha         1 UB6       0.139000
     54 H231       -16.0090   -13.8130     7.7240 hn         1 UB6       0.465000
     55 H311       -11.2720   -18.9250     4.5880 ha         1 UB6       0.127000
     56 H331       -14.2420   -18.5450     3.8920 hc         1 UB6       0.054367
     57 H332       -14.3080   -16.7930     4.1730 hc         1 UB6       0.054367
     58 H333       -12.9230   -17.5030     3.3530 hc         1 UB6       0.054367
     59 H342        -9.1280   -19.1980     7.7130 hc         1 UB6       0.063200
     60 H341        -8.9550   -18.8790     6.0010 hc         1 UB6       0.063200
     61 H351       -10.1620   -20.9980     5.4610 hc         1 UB6       0.041700
     62 H363       -11.6130   -21.2310     7.4580 hc         1 UB6       0.036033
     63 H362       -10.6300   -22.6870     7.2390 hc         1 UB6       0.036033
     64 H361       -10.1900   -21.5020     8.4880 hc         1 UB6       0.036033
     65 H373        -8.3580   -22.5660     6.1100 hc         1 UB6       0.036033
     66 H371        -7.6860   -21.0070     5.6000 hc         1 UB6       0.036033
     67 H372        -7.7690   -21.4140     7.3280 hc         1 UB6       0.036033
     68 O25        -13.8020   -14.7280     7.7480 o          1 UB6      -0.545000
     69 C03        -18.0570   -12.0240    10.1870 c          1 UB6       0.590100
@<TRIPOS>BOND
     1     1    11 1   
     2     1    14 1   
     3     1    15 1   
     4     1    36 1   
     5     2     3 ar  
     6     2    23 ar  
     7     2    25 1   
     8     3     4 1   
     9     3    20 ar  
    10     4    18 2   
    11     4    24 1   
    12     5    24 1   
    13     5    25 1   
    14     5    68 2   
    15     6    26 ar  
    16     6    27 ar  
    17     6    37 1   
    18     7     8 1   
    19     7    38 1   
    20     7    39 1   
    21     7    40 1   
    22     8    41 1   
    23     8    42 1   
    24     8    69 1   
    25     9    69 2   
    26    10    11 1   
    27    10    43 1   
    28    10    69 1   
    29    11    12 1   
    30    11    44 1   
    31    12    13 1   
    32    12    45 1   
    33    12    46 1   
    34    13    14 1   
    35    13    47 1   
    36    13    48 1   
    37    14    49 1   
    38    14    50 1   
    39    15    16 1   
    40    15    51 1   
    41    16    17 2   
    42    16    18 1   
    43    18    19 1   
    44    19    20 1   
    45    20    21 ar  
    46    21    22 ar  
    47    22    23 ar  
    48    22    52 1   
    49    23    53 1   
    50    24    54 1   
    51    25    26 1   
    52    26    30 ar  
    53    27    28 ar  
    54    28    29 ar  
    55    28    32 1   
    56    29    30 ar  
    57    29    55 1   
    58    30    31 1   
    59    31    56 1   
    60    31    57 1   
    61    31    58 1   
    62    32    33 1   
    63    32    59 1   
    64    32    60 1   
    65    33    34 1   
    66    33    35 1   
    67    33    61 1   
    68    34    62 1   
    69    34    63 1   
    70    34    64 1   
    71    35    65 1   
    72    35    66 1   
    73    35    67 1   
@<TRIPOS>SUBSTRUCTURE
     1 UB6         1 TEMP              0 ****  ****    0 ROOT
