@<TRIPOS>MOLECULE
UB6
   69    73     1     0     0
SMALL
abcg2


@<TRIPOS>ATOM
      1 C10        -18.5030   -11.2000     7.3700 c5         1 UB6       0.099700
      2 C20        -15.9300   -17.3960     6.2840 ca         1 UB6       0.170600
      3 C21        -17.1100   -16.6680     6.2010 ca         1 UB6      -0.224800
      4 C22        -17.2360   -15.3220     6.6120 cc         1 UB6       0.136400
      5 C24        -14.8900   -15.4140     7.2720 c          1 UB6       0.625000
      6 C28        -13.3150   -18.1560     8.0890 ca         1 UB6       0.364900
      7 C01        -16.9570   -14.6630    10.7700 c3         1 UB6      -0.081100
      8 C02        -16.3160   -13.2730    10.7770 c3         1 UB6      -0.157400
      9 O04        -18.3410   -12.0270    10.4070 o          1 UB6      -0.594100
     10 N05        -16.6130   -11.6410     9.0000 ns         1 UB6      -0.513900
     11 C06        -17.2950   -10.6610     8.1760 c5         1 UB6       0.094700
     12 C07        -16.3540   -10.0580     7.1180 c5         1 UB6      -0.096400
     13 C08        -17.2530    -9.6850     5.9130 c5         1 UB6      -0.079400
     14 C09        -18.6840   -10.1120     6.3060 c5         1 UB6      -0.102400
     15 N11        -18.2120   -12.5090     6.8110 ns         1 UB6      -0.504900
     16 C12        -19.0800   -13.5480     6.8500 c          1 UB6       0.643300
     17 O13        -20.2560   -13.4420     7.2100 o          1 UB6      -0.584100
     18 C14        -18.5120   -14.8450     6.4590 cd         1 UB6      -0.199600
     19 S15        -19.5930   -16.0930     5.8140 ss         1 UB6      -0.026900
     20 C16        -18.2830   -17.2480     5.7240 ca         1 UB6       0.429300
     21 N17        -18.3550   -18.5060     5.2870 nb         1 UB6      -0.653000
     22 C18        -17.2070   -19.1930     5.3490 ca         1 UB6       0.390900
     23 C19        -15.9820   -18.7100     5.8320 ca         1 UB6      -0.226000
     24 N23        -16.0890   -14.7490     7.1280 ns         1 UB6      -0.512600
     25 N26        -14.8270   -16.7380     6.8170 n          1 UB6      -0.225200
     26 C27        -13.5750   -17.4270     6.9430 ca         1 UB6      -0.033400
     27 N29        -12.1850   -18.8390     8.2800 nb         1 UB6      -0.664000
     28 C30        -11.2590   -18.8080     7.3100 ca         1 UB6       0.373300
     29 C31        -11.4570   -18.0900     6.1290 ca         1 UB6      -0.163000
     30 C32        -12.6310   -17.3800     5.9140 ca         1 UB6      -0.012300
     31 C33        -12.8800   -16.6080     4.6550 c3         1 UB6      -0.054800
     32 C34         -9.9990   -19.5990     7.5190 c3         1 UB6      -0.133700
     33 C35         -9.8960   -20.8450     6.6160 c3         1 UB6      -0.058700
     34 C36        -11.0610   -21.8080     6.8420 c3         1 UB6      -0.088100
     35 C37         -8.5540   -21.5410     6.8400 c3         1 UB6      -0.088100
     36 H101       -19.3800   -11.3200     7.9950 h1         1 UB6       0.114700
     37 H281       -14.0550   -18.1860     8.8820 h4         1 UB6       0.031100
     38 H1         -16.3380   -15.3690    11.3240 hc         1 UB6       0.043700
     39 H2         -17.9440   -14.6350    11.2320 hc         1 UB6       0.043700
     40 H3         -17.0690   -15.0370     9.7510 hc         1 UB6       0.043700
     41 H021       -15.3210   -13.3120    10.3300 hc         1 UB6       0.059700
     42 H022       -16.2000   -12.9240    11.8060 hc         1 UB6       0.059700
     43 H051       -15.6470   -11.8390     8.7940 hn         1 UB6       0.310500
     44 H061       -17.6870    -9.8710     8.8210 h1         1 UB6       0.074700
     45 H071       -15.6140   -10.8070     6.8250 hc         1 UB6       0.046200
     46 H072       -15.8080    -9.2050     7.5180 hc         1 UB6       0.046200
     47 H081       -16.9260   -10.2210     5.0210 hc         1 UB6       0.046700
     48 H082       -17.2060    -8.6220     5.6820 hc         1 UB6       0.046700
     49 H091       -19.2170    -9.2740     6.7600 hc         1 UB6       0.061200
     50 H092       -19.2770   -10.4660     5.4630 hc         1 UB6       0.061200
     51 H111       -17.3720   -12.6200     6.2650 hn         1 UB6       0.305500
     52 H181       -17.2520   -20.2160     4.9940 h4         1 UB6       0.026100
     53 H191       -15.1180   -19.3570     5.8480 ha         1 UB6       0.139000
     54 H231       -16.1030   -13.8200     7.5250 hn         1 UB6       0.465000
     55 H311       -10.6850   -18.0880     5.3700 ha         1 UB6       0.127000
     56 H331       -13.7680   -16.9840     4.1410 hc         1 UB6       0.054367
     57 H332       -13.0560   -15.5530     4.8740 hc         1 UB6       0.054367
     58 H333       -12.0300   -16.6870     3.9800 hc         1 UB6       0.054367
     59 H342        -9.9520   -19.9070     8.5650 hc         1 UB6       0.063200
     60 H341        -9.1360   -18.9570     7.3210 hc         1 UB6       0.063200
     61 H351        -9.9330   -20.5030     5.5760 hc         1 UB6       0.041700
     62 H363       -12.0220   -21.3350     6.6360 hc         1 UB6       0.036033
     63 H362       -10.9690   -22.6810     6.1920 hc         1 UB6       0.036033
     64 H361       -11.0740   -22.1580     7.8780 hc         1 UB6       0.036033
     65 H373        -8.4460   -22.4020     6.1770 hc         1 UB6       0.036033
     66 H371        -7.7190   -20.8620     6.6560 hc         1 UB6       0.036033
     67 H372        -8.4750   -21.9010     7.8710 hc         1 UB6       0.036033
     68 O25        -13.9220   -14.8660     7.7710 o          1 UB6      -0.545000
     69 C03        -17.1820   -12.2580    10.0570 c          1 UB6       0.590100
@<TRIPOS>BOND
     1     1    11 1   
     2     1    14 1   
     3     1    15 1   
     4     1    36 1   
     5     2     3 ar  
     6     2    23 ar  
     7     2    25 1   
     8     3     4 1   
     9     3    20 ar  
    10     4    18 2   
    11     4    24 1   
    12     5    24 1   
    13     5    25 1   
    14     5    68 2   
    15     6    26 ar  
    16     6    27 ar  
    17     6    37 1   
    18     7     8 1   
    19     7    38 1   
    20     7    39 1   
    21     7    40 1   
    22     8    41 1   
    23     8    42 1   
    24     8    69 1   
    25     9    69 2   
    26    10    11 1   
    27    10    43 1   
    28    10    69 1   
    29    11    12 1   
    30    11    44 1   
    31    12    13 1   
    32    12    45 1   
    33    12    46 1   
    34    13    14 1   
    35    13    47 1   
    36    13    48 1   
    37    14    49 1   
    38    14    50 1   
    39    15    16 1   
    40    15    51 1   
    41    16    17 2   
    42    16    18 1   
    43    18    19 1   
    44    19    20 1   
    45    20    21 ar  
    46    21    22 ar  
    47    22    23 ar  
    48    22    52 1   
    49    23    53 1   
    50    24    54 1   
    51    25    26 1   
    52    26    30 ar  
    53    27    28 ar  
    54    28    29 ar  
    55    28    32 1   
    56    29    30 ar  
    57    29    55 1   
    58    30    31 1   
    59    31    56 1   
    60    31    57 1   
    61    31    58 1   
    62    32    33 1   
    63    32    59 1   
    64    32    60 1   
    65    33    34 1   
    66    33    35 1   
    67    33    61 1   
    68    34    62 1   
    69    34    63 1   
    70    34    64 1   
    71    35    65 1   
    72    35    66 1   
    73    35    67 1   
@<TRIPOS>SUBSTRUCTURE
     1 UB6         1 TEMP              0 ****  ****    0 ROOT
