@<TRIPOS>MOLECULE
UB7
   16    16     1     0     0
SMALL
abcg2


@<TRIPOS>ATOM
      1 C01         -3.4330   -16.8230   -57.5030 ca         1 UB7      -0.122750
      2 C02         -3.8150   -16.0080   -58.5580 ca         1 UB7      -0.122750
      3 C03         -3.7030   -14.6210   -58.4750 ca         1 UB7      -0.161600
      4 C04         -3.1950   -14.0790   -57.2970 ca         1 UB7      -0.122750
      5 C05         -2.8130   -14.8940   -56.2410 ca         1 UB7      -0.122750
      6 C06         -2.9240   -16.2810   -56.3240 ca         1 UB7      -0.161600
      7 C07         -2.5010   -17.1750   -55.1630 c          1 UB7       0.716600
      8 C10         -4.1270   -13.7270   -59.6370 c          1 UB7       0.716600
      9 O08         -2.6830   -18.4000   -55.3060 o          1 UB7      -0.753000
     10 O09         -2.0070   -16.6020   -54.1720 o          1 UB7      -0.753000
     11 O11         -3.9460   -12.5020   -59.4930 o          1 UB7      -0.753000
     12 O12         -4.6180   -14.3000   -60.6290 o          1 UB7      -0.753000
     13 H011        -3.5290   -17.8970   -57.5950 ha         1 UB7       0.098000
     14 H021        -4.2080   -16.4530   -59.4640 ha         1 UB7       0.098000
     15 H041        -3.0990   -13.0050   -57.2050 ha         1 UB7       0.098000
     16 H051        -2.4210   -14.4490   -55.3360 ha         1 UB7       0.098000
@<TRIPOS>BOND
     1     1     2 ar  
     2     1     6 ar  
     3     1    13 1   
     4     2     3 ar  
     5     2    14 1   
     6     3     4 ar  
     7     3     8 1   
     8     4     5 ar  
     9     4    15 1   
    10     5     6 ar  
    11     5    16 1   
    12     6     7 1   
    13     7     9 1   
    14     7    10 1   
    15     8    11 1   
    16     8    12 1   
@<TRIPOS>SUBSTRUCTURE
     1 UB7         1 TEMP              0 ****  ****    0 ROOT
