@<TRIPOS>MOLECULE
UB7
   16    16     1     0     0
SMALL
No Charge or Current Charge


@<TRIPOS>ATOM
      1 C01         -3.4420   -16.8430   -57.5020 ca         1 UB7      -0.122750
      2 C02         -3.8310   -16.0180   -58.5720 ca         1 UB7      -0.122750
      3 C03         -3.7100   -14.6110   -58.4890 ca         1 UB7      -0.161600
      4 C04         -3.1860   -14.0590   -57.2980 ca         1 UB7      -0.122750
      5 C05         -2.7960   -14.8840   -56.2280 ca         1 UB7      -0.122750
      6 C06         -2.9180   -16.2910   -56.3100 ca         1 UB7      -0.161600
      7 C07         -2.4960   -17.1860   -55.1500 c          1 UB7       0.716600
      8 C10         -4.1320   -13.7160   -59.6500 c          1 UB7       0.716600
      9 O08         -2.6180   -18.3970   -55.2650 o          1 UB7      -0.753000
     10 O09         -2.0470   -16.6650   -54.1380 o          1 UB7      -0.753000
     11 O11         -4.0100   -12.5050   -59.5340 o          1 UB7      -0.753000
     12 O12         -4.5800   -14.2370   -60.6620 o          1 UB7      -0.753000
     13 H011        -3.5520   -17.9200   -57.6060 ha         1 UB7       0.098000
     14 H021        -4.2300   -16.4810   -59.4720 ha         1 UB7       0.098000
     15 H041        -3.0760   -12.9820   -57.1940 ha         1 UB7       0.098000
     16 H051        -2.3980   -14.4210   -55.3280 ha         1 UB7       0.098000
@<TRIPOS>BOND
     1     1     2 ar  
     2     1     6 ar  
     3     1    13 1   
     4     2     3 ar  
     5     2    14 1   
     6     3     4 ar  
     7     3     8 1   
     8     4     5 ar  
     9     4    15 1   
    10     5     6 ar  
    11     5    16 1   
    12     6     7 1   
    13     7     9 1   
    14     7    10 1   
    15     8    11 1   
    16     8    12 1   
@<TRIPOS>SUBSTRUCTURE
     1 UB7         1 TEMP              0 ****  ****    0 ROOT
