@<TRIPOS>MOLECULE
UB8
   28    30     1     0     0
SMALL
abcg2


@<TRIPOS>ATOM
      1 C10          2.3890     4.8130    18.9580 ca         1 UB8      -0.096000
      2 C11          6.0630     8.2230    21.5840 ca         1 UB8      -0.108000
      3 O14          3.4520     7.3740    16.2820 o          1 UB8      -0.698000
      4 C15         -0.0220     6.0670    18.4090 ca         1 UB8      -0.114000
      5 C17          1.2580     4.0510    18.6960 ca         1 UB8      -0.122000
      6 C18          5.6820     7.6970    22.8060 ca         1 UB8       0.116000
      7 C21          0.0500     4.6790    18.4170 ca         1 UB8      -0.122000
      8 C1           3.5660     6.9800    19.2630 cc         1 UB8      -0.137400
      9 C2           4.1290     7.0840    20.5780 ca         1 UB8      -0.072800
     10 C3           4.3720     7.7270    18.4260 cd         1 UB8      -0.030300
     11 C4           2.3520     6.2120    18.9410 ca         1 UB8       0.061200
     12 C5           5.2790     7.9130    20.4770 ca         1 UB8      -0.060200
     13 C6           3.7630     6.5690    21.8240 ca         1 UB8      -0.057000
     14 N7           5.3930     8.2830    19.1680 na         1 UB8      -0.197700
     15 C8           4.3210     7.9870    16.9430 c          1 UB8       0.716200
     16 C9           1.1180     6.8120    18.6760 ca         1 UB8       0.160000
     17 C12          4.5390     6.8770    22.9260 ca         1 UB8       0.087000
     18 O13          5.1770     8.8030    16.5090 o          1 UB8      -0.698000
     19 CL16         0.9730     8.5590    18.6900 cl         1 UB8      -0.215000
     20 CL19         4.0730     6.2290    24.4810 cl         1 UB8      -0.232000
     21 H27          3.3320     4.3280    19.1740 ha         1 UB8       0.115000
     22 H28          6.9380     8.8530    21.5070 ha         1 UB8       0.122000
     23 H31         -0.9570     6.5700    18.2040 ha         1 UB8       0.113000
     24 H32          1.3210     2.9700    18.7100 ha         1 UB8       0.099000
     25 H33         -0.8390     4.0970    18.2090 ha         1 UB8       0.098000
     26 H25          2.8910     5.9400    21.9360 ha         1 UB8       0.127000
     27 H26          6.1060     8.8630    18.7540 hn         1 UB8       0.374000
     28 CL22         6.6510     8.0740    24.2070 cl         1 UB8      -0.229000
@<TRIPOS>BOND
     1     1     5 ar  
     2     1    11 ar  
     3     1    21 1   
     4     2     6 ar  
     5     2    12 ar  
     6     2    22 1   
     7     3    15 1   
     8     4     7 ar  
     9     4    16 ar  
    10     4    23 1   
    11     5     7 ar  
    12     5    24 1   
    13     6    17 ar  
    14     6    28 1   
    15     7    25 1   
    16     8     9 1   
    17     8    10 2   
    18     8    11 1   
    19     9    12 ar  
    20     9    13 ar  
    21    10    14 1   
    22    10    15 1   
    23    11    16 ar  
    24    12    14 1   
    25    13    17 ar  
    26    13    26 1   
    27    14    27 1   
    28    15    18 1   
    29    16    19 1   
    30    17    20 1   
@<TRIPOS>SUBSTRUCTURE
     1 UB8         1 TEMP              0 ****  ****    0 ROOT
