@<TRIPOS>MOLECULE
UB8
   28    30     1     0     0
SMALL
No Charge or Current Charge


@<TRIPOS>ATOM
      1 C10          2.4500     4.8220    18.8940 ca         1 UB8      -0.096000
      2 C11          6.0550     8.2380    21.5980 ca         1 UB8      -0.108000
      3 O14          3.2580     7.2460    16.3830 o          1 UB8      -0.698000
      4 C15          0.0060     6.1170    18.4080 ca         1 UB8      -0.114000
      5 C17          1.3080     4.0690    18.5700 ca         1 UB8      -0.122000
      6 C18          5.6890     7.7270    22.8620 ca         1 UB8       0.116000
      7 C21          0.0860     4.7170    18.3240 ca         1 UB8      -0.122000
      8 C1           3.5770     6.9820    19.3320 cc         1 UB8      -0.137400
      9 C2           4.1550     7.1140    20.6310 ca         1 UB8      -0.072800
     10 C3           4.3710     7.6980    18.4280 cd         1 UB8      -0.030300
     11 C4           2.3810     6.2260    18.9690 ca         1 UB8       0.061200
     12 C5           5.2570     7.9080    20.4940 ca         1 UB8      -0.060200
     13 C6           3.7570     6.5880    21.8670 ca         1 UB8      -0.057000
     14 N7           5.4270     8.2940    19.1720 na         1 UB8      -0.197700
     15 C8           4.1790     7.8260    16.9410 c          1 UB8       0.716200
     16 C9           1.1470     6.8720    18.7320 ca         1 UB8       0.160000
     17 C12          4.5390     6.9020    22.9980 ca         1 UB8       0.087000
     18 O13          4.9860     8.5120    16.3270 o          1 UB8      -0.698000
     19 Cl16         1.0000     8.6280    18.8610 cl         1 UB8      -0.215000
     20 Cl19         4.0630     6.2540    24.5690 cl         1 UB8      -0.232000
     21 H27          3.3940     4.3170    19.0880 ha         1 UB8       0.115000
     22 H28          6.9320     8.8690    21.4870 ha         1 UB8       0.122000
     23 H31         -0.9410     6.6190    18.2280 ha         1 UB8       0.113000
     24 H32          1.3710     2.9850    18.5100 ha         1 UB8       0.099000
     25 H33         -0.7990     4.1340    18.0750 ha         1 UB8       0.098000
     26 H25          2.8740     5.9600    21.9530 ha         1 UB8       0.127000
     27 H26          6.1660     8.8770    18.7910 hn         1 UB8       0.374000
     28 Cl22         6.6840     8.1340    24.2620 cl         1 UB8      -0.229000
@<TRIPOS>BOND
     1     1     5 ar  
     2     1    11 ar  
     3     1    21 1   
     4     2     6 ar  
     5     2    12 ar  
     6     2    22 1   
     7     3    15 1   
     8     4     7 ar  
     9     4    16 ar  
    10     4    23 1   
    11     5     7 ar  
    12     5    24 1   
    13     6    17 ar  
    14     6    28 1   
    15     7    25 1   
    16     8     9 1   
    17     8    10 2   
    18     8    11 1   
    19     9    12 ar  
    20     9    13 ar  
    21    10    14 1   
    22    10    15 1   
    23    11    16 ar  
    24    12    14 1   
    25    13    17 ar  
    26    13    26 1   
    27    14    27 1   
    28    15    18 1   
    29    16    19 1   
    30    17    20 1   
@<TRIPOS>SUBSTRUCTURE
     1 UB8         1 TEMP              0 ****  ****    0 ROOT
