@<TRIPOS>MOLECULE
UB9
   24    24     1     0     0
SMALL
No Charge or Current Charge


@<TRIPOS>ATOM
      1 C12          8.0350     3.3770     7.2350 c3         1 UB9       0.152900
      2 C02          6.9000     2.8760     3.1040 ca         1 UB9      -0.041300
      3 C03          7.2670     3.0640     4.4480 ca         1 UB9      -0.191500
      4 C04          7.6310     1.9590     5.2480 ca         1 UB9       0.107600
      5 C05          7.6270     0.6610     4.6950 ca         1 UB9       0.076100
      6 C06          7.2600     0.4660     3.3420 ca         1 UB9       0.107600
      7 C07          6.8990     1.5820     2.5540 ca         1 UB9      -0.191500
      8 O08          7.2670    -0.8210     2.8270 os         1 UB9      -0.342600
      9 O10          7.9840    -0.4010     5.4900 oh         1 UB9      -0.517100
     10 O11          7.9990     2.0980     6.5770 os         1 UB9      -0.342600
     11 H123         8.3510     3.2580     8.2790 h1         1 UB9       0.040033
     12 H121         8.7460     4.0510     6.7400 h1         1 UB9       0.040033
     13 H122         7.0430     3.8460     7.2320 h1         1 UB9       0.040033
     14 H013         7.3900     4.4870     1.7380 hc         1 UB9       0.041367
     15 H011         5.7820     3.7910     1.4770 hc         1 UB9       0.041367
     16 H012         6.0630     4.8690     2.8480 hc         1 UB9       0.041367
     17 H031         7.2660     4.0720     4.8530 ha         1 UB9       0.118000
     18 H071         6.6150     1.4620     1.5120 ha         1 UB9       0.118000
     19 H093         6.9840    -2.1870     1.2710 h1         1 UB9       0.040033
     20 H092         5.8770    -0.7990     1.2560 h1         1 UB9       0.040033
     21 H091         7.5810    -0.5930     0.7650 h1         1 UB9       0.040033
     22 H101         8.1960    -0.0360     6.3770 ho         1 UB9       0.472000
     23 C01          6.5120     4.0700     2.2450 c3         1 UB9      -0.044800
     24 C09          6.9090    -1.1100     1.4630 c3         1 UB9       0.152900
@<TRIPOS>BOND
     1     1    10 1   
     2     1    11 1   
     3     1    12 1   
     4     1    13 1   
     5     2     3 ar  
     6     2     7 ar  
     7     2    23 1   
     8     3     4 ar  
     9     3    17 1   
    10     4     5 ar  
    11     4    10 1   
    12     5     6 ar  
    13     5     9 1   
    14     6     7 ar  
    15     6     8 1   
    16     7    18 1   
    17     8    24 1   
    18     9    22 1   
    19    14    23 1   
    20    15    23 1   
    21    16    23 1   
    22    19    24 1   
    23    20    24 1   
    24    21    24 1   
@<TRIPOS>SUBSTRUCTURE
     1 UB9         1 TEMP              0 ****  ****    0 ROOT
