@<TRIPOS>MOLECULE
UB9
   24    24     1     0     0
SMALL
abcg2


@<TRIPOS>ATOM
      1 C12          8.0140     3.3110     7.1490 c3         1 UB9       0.152900
      2 C02          6.8860     2.8840     3.1060 ca         1 UB9      -0.041300
      3 C03          7.2420     3.0710     4.4360 ca         1 UB9      -0.191500
      4 C04          7.6100     1.9810     5.2190 ca         1 UB9       0.107600
      5 C05          7.6230     0.6930     4.6830 ca         1 UB9       0.076100
      6 C06          7.2640     0.5070     3.3470 ca         1 UB9       0.107600
      7 C07          6.8980     1.6010     2.5670 ca         1 UB9      -0.191500
      8 O08          7.3030    -0.7690     2.9130 os         1 UB9      -0.342600
      9 O10          7.9680    -0.3910     5.4170 oh         1 UB9      -0.517100
     10 O11          7.9710     2.0460     6.5210 os         1 UB9      -0.342600
     11 H123         8.3360     3.1370     8.1720 h1         1 UB9       0.040033
     12 H121         8.7270     3.9820     6.6630 h1         1 UB9       0.040033
     13 H122         7.0320     3.7910     7.1650 h1         1 UB9       0.040033
     14 H013         7.3770     4.4120     1.6700 hc         1 UB9       0.041367
     15 H011         5.7350     3.8050     1.5320 hc         1 UB9       0.041367
     16 H012         6.1650     4.8990     2.8450 hc         1 UB9       0.041367
     17 H031         7.2260     4.0690     4.8530 ha         1 UB9       0.118000
     18 H071         6.6160     1.4660     1.5310 ha         1 UB9       0.118000
     19 H093         7.0320    -2.1060     1.4340 h1         1 UB9       0.040033
     20 H092         5.9070    -0.7380     1.3630 h1         1 UB9       0.040033
     21 H091         7.5990    -0.5270     0.8620 h1         1 UB9       0.040033
     22 H101         8.1970    -0.1110     6.3120 ho         1 UB9       0.472000
     23 C01          6.5180     4.0600     2.2460 c3         1 UB9      -0.044800
     24 C09          6.9390    -1.0320     1.5740 c3         1 UB9       0.152900
@<TRIPOS>BOND
     1     1    10 1   
     2     1    11 1   
     3     1    12 1   
     4     1    13 1   
     5     2     3 ar  
     6     2     7 ar  
     7     2    23 1   
     8     3     4 ar  
     9     3    17 1   
    10     4     5 ar  
    11     4    10 1   
    12     5     6 ar  
    13     5     9 1   
    14     6     7 ar  
    15     6     8 1   
    16     7    18 1   
    17     8    24 1   
    18     9    22 1   
    19    14    23 1   
    20    15    23 1   
    21    16    23 1   
    22    19    24 1   
    23    20    24 1   
    24    21    24 1   
@<TRIPOS>SUBSTRUCTURE
     1 UB9         1 TEMP              0 ****  ****    0 ROOT
