@<TRIPOS>MOLECULE
UBA
   37    38     1     0     0
SMALL
No Charge or Current Charge


@<TRIPOS>ATOM
      1 O            5.7920    -1.7340    -0.7410 o          1 UBA      -0.729500
      2 C            4.7280    -2.1030    -0.2630 c          1 UBA       0.697000
      3 OXT          4.4360    -3.2810    -0.1090 o          1 UBA      -0.729500
      4 CA           3.7330    -1.0090     0.2810 c3         1 UBA      -0.015500
      5 N            4.2250    -0.2030     1.4710 n8         1 UBA      -1.008200
      6 CB           3.2770    -0.1090    -0.9000 c3         1 UBA       0.126000
      7 N4           2.1020     0.7510    -0.5940 n          1 UBA      -0.286000
      8 C5           0.8110     0.2970    -0.9320 c          1 UBA       0.600000
      9 O8           0.6410    -0.8030    -1.4420 o          1 UBA      -0.538000
     10 N6          -0.2710     1.1490    -0.6630 n          1 UBA      -0.369400
     11 C1          -0.1470     2.4160    -0.0780 c          1 UBA       0.588200
     12 O7          -1.1160     3.1320     0.1410 o          1 UBA      -0.562000
     13 C2           1.2360     2.8250     0.2560 cc         1 UBA      -0.336400
     14 C6           1.3880     4.1860     0.8950 c3         1 UBA       0.005100
     15 C3           2.2950     1.9900    -0.0060 cd         1 UBA       0.043600
     16 C17         -1.6390     0.6700    -1.0020 c3         1 UBA       0.178300
     17 C18         -2.3250    -0.1110     0.1120 cc         1 UBA      -0.123300
     18 C23         -1.6960    -0.3430     1.3730 cc         1 UBA      -0.113000
     19 C22         -2.4410    -1.0600     2.2680 cd         1 UBA      -0.317000
     20 S20         -4.0060    -1.5010     1.5840 ss         1 UBA       0.178000
     21 C19         -3.5920    -0.6780     0.0680 cd         1 UBA      -0.216600
     22 C10         -4.5460    -0.6390    -1.0810 c          1 UBA       0.735600
     23 O2          -5.6280    -1.1930    -0.9490 o          1 UBA      -0.723500
     24 O1          -4.2330    -0.0620    -2.1120 o          1 UBA      -0.723500
     25 HA           2.8410    -1.5600     0.6130 h1         1 UBA       0.069700
     26 HN1          4.4260    -0.8410     2.2520 hn         1 UBA       0.386000
     27 HN2          5.1500     0.1860     1.2470 hn         1 UBA       0.386000
     28 HB1          3.0500    -0.7450    -1.7660 h1         1 UBA       0.061200
     29 HB2          4.1140     0.5320    -1.2060 h1         1 UBA       0.061200
     30 H61          1.0120     4.9760     0.2340 hc         1 UBA       0.024367
     31 H62          0.8380     4.2410     1.8420 hc         1 UBA       0.024367
     32 H63          2.4410     4.4080     1.1100 hc         1 UBA       0.024367
     33 H3           3.3330     2.2200     0.2210 h4         1 UBA       0.195000
     34 H171        -2.2720     1.5250    -1.2740 h1         1 UBA       0.088200
     35 H172        -1.5950     0.0390    -1.9000 h1         1 UBA       0.088200
     36 H23         -0.7000     0.0200     1.6100 ha         1 UBA       0.116000
     37 H22         -2.1790    -1.3570     3.2760 h4         1 UBA       0.115000
@<TRIPOS>BOND
     1     1     2 1   
     2     2     3 1   
     3     2     4 1   
     4     4     5 1   
     5     4     6 1   
     6     4    25 1   
     7     5    26 1   
     8     5    27 1   
     9     6     7 1   
    10     6    28 1   
    11     6    29 1   
    12     7     8 1   
    13     7    15 1   
    14     8     9 2   
    15     8    10 1   
    16    10    11 1   
    17    10    16 1   
    18    11    12 2   
    19    11    13 1   
    20    13    14 1   
    21    13    15 2   
    22    14    30 1   
    23    14    31 1   
    24    14    32 1   
    25    15    33 1   
    26    16    17 1   
    27    16    34 1   
    28    16    35 1   
    29    17    18 1   
    30    17    21 2   
    31    18    19 2   
    32    18    36 1   
    33    19    20 1   
    34    19    37 1   
    35    20    21 1   
    36    21    22 1   
    37    22    23 1   
    38    22    24 1   
@<TRIPOS>SUBSTRUCTURE
     1 UBA         1 TEMP              0 ****  ****    0 ROOT
