@<TRIPOS>MOLECULE
UBA
   37    38     1     0     0
SMALL
abcg2


@<TRIPOS>ATOM
      1 O            5.7080    -1.8010     0.5380 o          1 UBA      -0.729500
      2 C            4.6710    -1.9390    -0.1380 c          1 UBA       0.697000
      3 OXT          4.4970    -2.7180    -1.0960 o          1 UBA      -0.729500
      4 CA           3.4640    -1.0280     0.2140 c3         1 UBA      -0.015500
      5 N            3.5930    -0.2540     1.4330 n8         1 UBA      -1.008200
      6 CB           3.2290    -0.0870    -0.9720 c3         1 UBA       0.126000
      7 N4           2.0840     0.7920    -0.7620 n          1 UBA      -0.286000
      8 C5           0.8290     0.3090    -1.0180 c          1 UBA       0.600000
      9 O8           0.6420    -0.7970    -1.4890 o          1 UBA      -0.538000
     10 N6          -0.2170     1.1580    -0.7090 n          1 UBA      -0.369400
     11 C1          -0.0840     2.4040    -0.0980 c          1 UBA       0.588200
     12 O7          -1.0720     3.0600     0.1900 o          1 UBA      -0.562000
     13 C2           1.2690     2.8370     0.1570 cc         1 UBA      -0.336400
     14 C6           1.4920     4.1700     0.7920 c3         1 UBA       0.005100
     15 C3           2.2730     2.0040    -0.1710 cd         1 UBA       0.043600
     16 C17         -1.5640     0.6710    -0.9820 c3         1 UBA       0.178300
     17 C18         -2.1300    -0.1190     0.1670 cc         1 UBA      -0.123300
     18 C23         -1.4410    -0.3620     1.3900 cc         1 UBA      -0.113000
     19 C22         -2.1670    -1.1070     2.2710 cd         1 UBA      -0.317000
     20 S20         -3.6950    -1.5240     1.6330 ss         1 UBA       0.178000
     21 C19         -3.3750    -0.6940     0.1600 cd         1 UBA      -0.216600
     22 C10         -4.4460    -0.7060    -0.8910 c          1 UBA       0.735600
     23 O2          -5.4750    -1.3450    -0.5980 o          1 UBA      -0.723500
     24 O1          -4.2100    -0.0830    -1.9440 o          1 UBA      -0.723500
     25 HA           2.5810    -1.6670     0.3040 h1         1 UBA       0.069700
     26 HN1          3.3630    -0.8390     2.2250 hn         1 UBA       0.386000
     27 HN2          4.5720    -0.0220     1.5550 hn         1 UBA       0.386000
     28 HB1          3.0840    -0.6510    -1.8890 h1         1 UBA       0.061200
     29 HB2          4.0970     0.5590    -1.1160 h1         1 UBA       0.061200
     30 H61          1.0380     4.9730     0.2100 hc         1 UBA       0.024367
     31 H62          1.0610     4.2170     1.7940 hc         1 UBA       0.024367
     32 H63          2.5560     4.3820     0.8790 hc         1 UBA       0.024367
     33 H3           3.3050     2.2710     0.0050 h4         1 UBA       0.195000
     34 H171        -2.1940     1.5280    -1.2030 h1         1 UBA       0.088200
     35 H172        -1.5390     0.0680    -1.8850 h1         1 UBA       0.088200
     36 H23         -0.4460    -0.0040     1.6170 ha         1 UBA       0.116000
     37 H22         -1.8690    -1.4240     3.2590 h4         1 UBA       0.115000
@<TRIPOS>BOND
     1     1     2 1   
     2     2     3 1   
     3     2     4 1   
     4     4     5 1   
     5     4     6 1   
     6     4    25 1   
     7     5    26 1   
     8     5    27 1   
     9     6     7 1   
    10     6    28 1   
    11     6    29 1   
    12     7     8 1   
    13     7    15 1   
    14     8     9 2   
    15     8    10 1   
    16    10    11 1   
    17    10    16 1   
    18    11    12 2   
    19    11    13 1   
    20    13    14 1   
    21    13    15 2   
    22    14    30 1   
    23    14    31 1   
    24    14    32 1   
    25    15    33 1   
    26    16    17 1   
    27    16    34 1   
    28    16    35 1   
    29    17    18 1   
    30    17    21 2   
    31    18    19 2   
    32    18    36 1   
    33    19    20 1   
    34    19    37 1   
    35    20    21 1   
    36    21    22 1   
    37    22    23 1   
    38    22    24 1   
@<TRIPOS>SUBSTRUCTURE
     1 UBA         1 TEMP              0 ****  ****    0 ROOT
