@<TRIPOS>MOLECULE
UBC
   37    38     1     0     0
SMALL
abcg2


@<TRIPOS>ATOM
      1 O1          -4.4900    -2.5720     1.0450 o          1 UBC      -0.726500
      2 C10         -3.9160    -1.4730     1.1650 c          1 UBC       0.715600
      3 O2          -3.6590    -0.8820     2.2320 o          1 UBC      -0.726500
      4 C22         -3.5230    -0.7670    -0.1290 ca         1 UBC      -0.118600
      5 C23         -4.2930    -1.0220    -1.2630 ca         1 UBC      -0.093000
      6 C24         -4.0550    -0.3840    -2.4690 ca         1 UBC      -0.150000
      7 C25         -3.0060     0.5180    -2.5600 ca         1 UBC      -0.142000
      8 C26         -2.2130     0.7630    -1.4480 ca         1 UBC      -0.126000
      9 C21         -2.4520     0.1370    -0.2270 ca         1 UBC      -0.050300
     10 C17         -1.5620     0.4360     0.9610 c3         1 UBC       0.148300
     11 N6          -0.2980     1.0670     0.5870 n          1 UBC      -0.372400
     12 C5           0.6710     0.2250     0.0780 c          1 UBC       0.596000
     13 O8           0.4810    -0.9670    -0.0510 o          1 UBC      -0.513000
     14 C1          -0.1570     2.4470     0.7560 c          1 UBC       0.589200
     15 O7          -1.0750     3.1220     1.1890 o          1 UBC      -0.563000
     16 C2           1.1270     2.9700     0.3740 cc         1 UBC      -0.437200
     17 C3           2.0650     2.1470    -0.1240 cd         1 UBC       0.012600
     18 N4           1.8630     0.8130    -0.2860 n          1 UBC      -0.305000
     19 CB           2.9300    -0.0370    -0.8120 c3         1 UBC       0.072000
     20 CA           3.7490    -0.7310     0.2900 c3         1 UBC       0.005500
     21 N            4.3150     0.1640     1.2750 n8         1 UBC      -0.993200
     22 C            4.8380    -1.5660    -0.4260 c          1 UBC       0.726000
     23 OXT          4.4130    -2.5030    -1.1320 o          1 UBC      -0.725000
     24 O            6.0220    -1.2200    -0.2730 o          1 UBC      -0.725000
     25 H23         -5.1020    -1.7370    -1.1900 ha         1 UBC       0.117000
     26 H24         -4.6780    -0.5920    -3.3300 ha         1 UBC       0.076000
     27 H25         -2.7980     1.0290    -3.4910 ha         1 UBC       0.077000
     28 H26         -1.3910     1.4590    -1.5560 ha         1 UBC       0.089000
     29 H171        -1.3370    -0.4710     1.5140 h1         1 UBC       0.098700
     30 H172        -2.0660     1.1040     1.6520 h1         1 UBC       0.098700
     31 H2           1.3180     4.0270     0.4760 ha         1 UBC       0.196000
     32 H3           3.0320     2.5140    -0.4370 h4         1 UBC       0.190000
     33 HB1          3.5800     0.6100    -1.4040 h1         1 UBC       0.066200
     34 HB2          2.4930    -0.7700    -1.4840 h1         1 UBC       0.066200
     35 HA           3.0830    -1.4250     0.8120 h1         1 UBC       0.076700
     36 HN1          4.9660     0.8060     0.8420 hn         1 UBC       0.375500
     37 HN2          3.5980     0.7140     1.7320 hn         1 UBC       0.375500
@<TRIPOS>BOND
     1     1     2 1   
     2     2     3 1   
     3     2     4 1   
     4     4     5 ar  
     5     4     9 ar  
     6     5     6 ar  
     7     5    25 1   
     8     6     7 ar  
     9     6    26 1   
    10     7     8 ar  
    11     7    27 1   
    12     8     9 ar  
    13     8    28 1   
    14     9    10 1   
    15    10    11 1   
    16    10    29 1   
    17    10    30 1   
    18    11    12 1   
    19    11    14 1   
    20    12    13 2   
    21    12    18 1   
    22    14    15 2   
    23    14    16 1   
    24    16    17 2   
    25    16    31 1   
    26    17    18 1   
    27    17    32 1   
    28    18    19 1   
    29    19    20 1   
    30    19    33 1   
    31    19    34 1   
    32    20    21 1   
    33    20    22 1   
    34    20    35 1   
    35    21    36 1   
    36    21    37 1   
    37    22    23 1   
    38    22    24 1   
@<TRIPOS>SUBSTRUCTURE
     1 UBC         1 TEMP              0 ****  ****    0 ROOT
