@<TRIPOS>MOLECULE
UBC
   37    38     1     0     0
SMALL
No Charge or Current Charge


@<TRIPOS>ATOM
      1 O1          -3.9000    -2.8490     0.9160 o          1 UBC      -0.726500
      2 C10         -3.8000    -1.6370     1.0380 c          1 UBC       0.715600
      3 O2          -3.9410    -1.0570     2.1050 o          1 UBC      -0.726500
      4 C22         -3.5580    -0.8110    -0.2090 ca         1 UBC      -0.118600
      5 C23         -4.3520    -1.0640    -1.3500 ca         1 UBC      -0.093000
      6 C24         -4.1870    -0.3130    -2.5240 ca         1 UBC      -0.150000
      7 C25         -3.2250     0.7040    -2.5710 ca         1 UBC      -0.142000
      8 C26         -2.4230     0.9640    -1.4500 ca         1 UBC      -0.126000
      9 C21         -2.5680     0.2100    -0.2620 ca         1 UBC      -0.050300
     10 C17         -1.6580     0.4950     0.9450 c3         1 UBC       0.148300
     11 N6          -0.3320     1.0890     0.6160 n          1 UBC      -0.372400
     12 C5           0.6680     0.2320     0.1260 c          1 UBC       0.596000
     13 O8           0.4610    -0.9670    -0.0110 o          1 UBC      -0.513000
     14 C1          -0.1590     2.4660     0.7940 c          1 UBC       0.589200
     15 O7          -1.0320     3.2070     1.2190 o          1 UBC      -0.563000
     16 C2           1.1600     2.9670     0.4230 cc         1 UBC      -0.437200
     17 C3           2.1550     2.1570    -0.0580 cd         1 UBC       0.012600
     18 N4           1.9260     0.7970    -0.1930 n          1 UBC      -0.305000
     19 CB           2.9920    -0.0820    -0.7450 c3         1 UBC       0.072000
     20 CA           3.8890    -0.7500     0.3340 c3         1 UBC       0.005500
     21 N            4.5220     0.2770     1.2540 n8         1 UBC      -0.993200
     22 C            4.8690    -1.7750    -0.3580 c          1 UBC       0.726000
     23 OXT          4.8130    -2.9510    -0.0210 o          1 UBC      -0.725000
     24 O            5.6830    -1.3490    -1.1680 o          1 UBC      -0.725000
     25 H23         -5.1090    -1.8450    -1.3200 ha         1 UBC       0.117000
     26 H24         -4.8080    -0.5170    -3.3920 ha         1 UBC       0.076000
     27 H25         -3.0990     1.2910    -3.4780 ha         1 UBC       0.077000
     28 H26         -1.6850     1.7590    -1.5140 ha         1 UBC       0.089000
     29 H171        -1.4780    -0.4410     1.4890 h1         1 UBC       0.098700
     30 H172        -2.2040     1.1420     1.6440 h1         1 UBC       0.098700
     31 H2           1.3060     4.0350     0.5460 ha         1 UBC       0.196000
     32 H3           3.1470     2.4910    -0.3570 h4         1 UBC       0.190000
     33 HB1          3.6260     0.5110    -1.4190 h1         1 UBC       0.066200
     34 HB2          2.5360    -0.8650    -1.3650 h1         1 UBC       0.066200
     35 HA           3.2180    -1.3600     0.9550 h1         1 UBC       0.076700
     36 HN1          5.2120     0.8240     0.7240 hn         1 UBC       0.375500
     37 HN2          3.8100     0.9660     1.5250 hn         1 UBC       0.375500
@<TRIPOS>BOND
     1     1     2 1   
     2     2     3 1   
     3     2     4 1   
     4     4     5 ar  
     5     4     9 ar  
     6     5     6 ar  
     7     5    25 1   
     8     6     7 ar  
     9     6    26 1   
    10     7     8 ar  
    11     7    27 1   
    12     8     9 ar  
    13     8    28 1   
    14     9    10 1   
    15    10    11 1   
    16    10    29 1   
    17    10    30 1   
    18    11    12 1   
    19    11    14 1   
    20    12    13 2   
    21    12    18 1   
    22    14    15 2   
    23    14    16 1   
    24    16    17 2   
    25    16    31 1   
    26    17    18 1   
    27    17    32 1   
    28    18    19 1   
    29    19    20 1   
    30    19    33 1   
    31    19    34 1   
    32    20    21 1   
    33    20    22 1   
    34    20    35 1   
    35    21    36 1   
    36    21    37 1   
    37    22    23 1   
    38    22    24 1   
@<TRIPOS>SUBSTRUCTURE
     1 UBC         1 TEMP              0 ****  ****    0 ROOT
