@<TRIPOS>MOLECULE
UBE
   47    49     1     0     0
SMALL
No Charge or Current Charge


@<TRIPOS>ATOM
      1 O24         -3.2680    -3.4850    -1.2410 o          1 UBE      -0.717000
      2 C22         -3.8350    -2.4020    -1.2320 c          1 UBE       0.734600
      3 O23         -4.9720    -2.2640    -1.6570 o          1 UBE      -0.717000
      4 C21         -3.1360    -1.2050    -0.6880 cc         1 UBE      -0.206600
      5 S20         -3.9400     0.3630    -0.6620 ss         1 UBE       0.224000
      6 C19         -2.5380     1.0860     0.1030 cc         1 UBE      -0.256000
      7 C25         -2.3980     2.4940     0.4830 ca         1 UBE       0.051000
      8 C30         -3.0920     3.4900    -0.2340 ca         1 UBE      -0.112500
      9 C29         -2.9740     4.8450     0.1220 ca         1 UBE      -0.113500
     10 C28         -2.1610     5.2180     1.2040 ca         1 UBE      -0.143000
     11 C27         -1.4700     4.2360     1.9310 ca         1 UBE      -0.113500
     12 C26         -1.5880     2.8810     1.5740 ca         1 UBE      -0.112500
     13 C18         -1.5260     0.1770     0.2800 cd         1 UBE      -0.092000
     14 C17         -1.8490    -1.1450    -0.1630 cd         1 UBE      -0.130300
     15 C16         -0.8820    -2.3140    -0.0520 c3         1 UBE       0.176300
     16 N3           0.4550    -1.9770     0.5110 n          1 UBE      -0.372400
     17 C4           1.4680    -1.5930    -0.3790 c          1 UBE       0.600000
     18 O15          1.2680    -1.5460    -1.5860 o          1 UBE      -0.537000
     19 C2           0.6110    -2.0400     1.9020 c          1 UBE       0.586200
     20 O14         -0.3000    -2.3780     2.6470 o          1 UBE      -0.556000
     21 C1           1.9540    -1.6700     2.4050 cc         1 UBE      -0.322400
     22 C13          2.1390    -1.7300     3.9030 c3         1 UBE      -0.000900
     23 C6           2.9500    -1.3000     1.5350 cd         1 UBE       0.015600
     24 N5           2.7280    -1.2590     0.1670 n          1 UBE      -0.304000
     25 C7           3.8510    -0.8810    -0.7370 c3         1 UBE       0.061000
     26 C8           4.1610     0.6410    -0.7670 c3         1 UBE       0.012500
     27 N9           2.9540     1.4410    -1.2040 n8         1 UBE      -0.988200
     28 C10          5.4990     0.8880    -1.5730 c          1 UBE       0.727000
     29 O11          5.5210     0.6170    -2.7670 o          1 UBE      -0.726500
     30 O12          6.4500     1.3840    -0.9820 o          1 UBE      -0.726500
     31 H30         -3.7210     3.2170    -1.0780 ha         1 UBE       0.117500
     32 H29         -3.5110     5.6040    -0.4420 ha         1 UBE       0.094000
     33 H28         -2.0700     6.2660     1.4810 ha         1 UBE       0.090000
     34 H27         -0.8450     4.5230     2.7740 ha         1 UBE       0.094000
     35 H26         -1.0590     2.1340     2.1580 ha         1 UBE       0.117500
     36 H18         -0.5660     0.4390     0.7110 ha         1 UBE       0.114000
     37 H161        -1.3480    -3.0950     0.5610 h1         1 UBE       0.091200
     38 H162        -0.7560    -2.7600    -1.0470 h1         1 UBE       0.091200
     39 H131         1.4450    -1.0510     4.4140 hc         1 UBE       0.028700
     40 H132         1.9640    -2.7440     4.2820 hc         1 UBE       0.028700
     41 H133         3.1570    -1.4400     4.1910 hc         1 UBE       0.028700
     42 H6           3.9570    -1.0200     1.8360 h4         1 UBE       0.202000
     43 H71          4.7510    -1.4100    -0.3990 h1         1 UBE       0.072200
     44 H72          3.6580    -1.2320    -1.7590 h1         1 UBE       0.072200
     45 H8           4.3690     0.9410     0.2690 h1         1 UBE       0.035700
     46 HN91         2.7540     1.2250    -2.1880 hn         1 UBE       0.391000
     47 HN92         2.1270     1.0910    -0.7090 hn         1 UBE       0.391000
@<TRIPOS>BOND
     1     1     2 1   
     2     2     3 1   
     3     2     4 1   
     4     4     5 1   
     5     4    14 2   
     6     5     6 1   
     7     6     7 1   
     8     6    13 2   
     9     7     8 ar  
    10     7    12 ar  
    11     8     9 ar  
    12     8    31 1   
    13     9    10 ar  
    14     9    32 1   
    15    10    11 ar  
    16    10    33 1   
    17    11    12 ar  
    18    11    34 1   
    19    12    35 1   
    20    13    14 1   
    21    13    36 1   
    22    14    15 1   
    23    15    16 1   
    24    15    37 1   
    25    15    38 1   
    26    16    17 1   
    27    16    19 1   
    28    17    18 2   
    29    17    24 1   
    30    19    20 2   
    31    19    21 1   
    32    21    22 1   
    33    21    23 2   
    34    22    39 1   
    35    22    40 1   
    36    22    41 1   
    37    23    24 1   
    38    23    42 1   
    39    24    25 1   
    40    25    26 1   
    41    25    43 1   
    42    25    44 1   
    43    26    27 1   
    44    26    28 1   
    45    26    45 1   
    46    27    46 1   
    47    27    47 1   
    48    28    29 1   
    49    28    30 1   
@<TRIPOS>SUBSTRUCTURE
     1 UBE         1 TEMP              0 ****  ****    0 ROOT
