@<TRIPOS>MOLECULE
UBE
   47    49     1     0     0
SMALL
abcg2


@<TRIPOS>ATOM
      1 O24         -3.2350    -3.4450    -1.2710 o          1 UBE      -0.717000
      2 C22         -3.7500    -2.3120    -1.2900 c          1 UBE       0.734600
      3 O23         -4.8660    -1.9840    -1.7370 o          1 UBE      -0.717000
      4 C21         -2.9450    -1.1900    -0.7040 cc         1 UBE      -0.206600
      5 S20         -3.6540     0.3760    -0.7150 ss         1 UBE       0.224000
      6 C19         -2.2860     1.0810     0.0540 cc         1 UBE      -0.256000
      7 C25         -2.2260     2.5080     0.3680 ca         1 UBE       0.051000
      8 C30         -2.9540     3.4450    -0.3700 ca         1 UBE      -0.112500
      9 C29         -2.8900     4.7950    -0.0620 ca         1 UBE      -0.113500
     10 C28         -2.0900     5.2390     0.9830 ca         1 UBE      -0.143000
     11 C27         -1.3580     4.3170     1.7210 ca         1 UBE      -0.113500
     12 C26         -1.4280     2.9650     1.4210 ca         1 UBE      -0.112500
     13 C18         -1.3360     0.1270     0.3050 cd         1 UBE      -0.092000
     14 C17         -1.7010    -1.1740    -0.1280 cd         1 UBE      -0.130300
     15 C16         -0.8320    -2.3920     0.0310 c3         1 UBE       0.176300
     16 N3           0.4820    -2.0640     0.5700 n          1 UBE      -0.372400
     17 C4           1.4350    -1.6450    -0.3430 c          1 UBE       0.600000
     18 O15          1.1880    -1.5630    -1.5290 o          1 UBE      -0.537000
     19 C2           0.6630    -2.1350     1.9500 c          1 UBE       0.586200
     20 O14         -0.2590    -2.4510     2.6820 o          1 UBE      -0.556000
     21 C1           1.9890    -1.8060     2.4270 cc         1 UBE      -0.322400
     22 C13          2.2700    -1.8940     3.8920 c3         1 UBE      -0.000900
     23 C6           2.9050    -1.4190     1.5250 cd         1 UBE       0.015600
     24 N5           2.6620    -1.3320     0.1850 n          1 UBE      -0.304000
     25 C7           3.7220    -0.8170    -0.6810 c3         1 UBE       0.061000
     26 C8           3.8650     0.7130    -0.5940 c3         1 UBE       0.012500
     27 N9           2.6580     1.4630    -0.8660 n8         1 UBE      -0.988200
     28 C10          5.0180     1.1060    -1.5500 c          1 UBE       0.727000
     29 O11          4.7240     1.7490    -2.5720 o          1 UBE      -0.726500
     30 O12          6.1480     0.6970    -1.2150 o          1 UBE      -0.726500
     31 H30         -3.5670     3.1240    -1.2040 ha         1 UBE       0.117500
     32 H29         -3.4630     5.5030    -0.6460 ha         1 UBE       0.094000
     33 H28         -2.0380     6.2930     1.2220 ha         1 UBE       0.090000
     34 H27         -0.7370     4.6490     2.5430 ha         1 UBE       0.094000
     35 H26         -0.8690     2.2610     2.0230 ha         1 UBE       0.117500
     36 H18         -0.3900     0.3670     0.7720 ha         1 UBE       0.114000
     37 H161        -1.3000    -3.1050     0.7040 h1         1 UBE       0.091200
     38 H162        -0.7060    -2.8990    -0.9210 h1         1 UBE       0.091200
     39 H131         1.6180    -1.2330     4.4630 hc         1 UBE       0.028700
     40 H132         2.1150    -2.9060     4.2670 hc         1 UBE       0.028700
     41 H133         3.3000    -1.6110     4.1050 hc         1 UBE       0.028700
     42 H6           3.9090    -1.1490     1.8240 h4         1 UBE       0.202000
     43 H71          4.6530    -1.2980    -0.3840 h1         1 UBE       0.072200
     44 H72          3.5030    -1.1240    -1.7020 h1         1 UBE       0.072200
     45 H8           4.1830     0.9560     0.4270 h1         1 UBE       0.035700
     46 HN91         2.3590     1.3120    -1.8200 hn         1 UBE       0.391000
     47 HN92         1.9010     1.1650    -0.2640 hn         1 UBE       0.391000
@<TRIPOS>BOND
     1     1     2 1   
     2     2     3 1   
     3     2     4 1   
     4     4     5 1   
     5     4    14 2   
     6     5     6 1   
     7     6     7 1   
     8     6    13 2   
     9     7     8 ar  
    10     7    12 ar  
    11     8     9 ar  
    12     8    31 1   
    13     9    10 ar  
    14     9    32 1   
    15    10    11 ar  
    16    10    33 1   
    17    11    12 ar  
    18    11    34 1   
    19    12    35 1   
    20    13    14 1   
    21    13    36 1   
    22    14    15 1   
    23    15    16 1   
    24    15    37 1   
    25    15    38 1   
    26    16    17 1   
    27    16    19 1   
    28    17    18 2   
    29    17    24 1   
    30    19    20 2   
    31    19    21 1   
    32    21    22 1   
    33    21    23 2   
    34    22    39 1   
    35    22    40 1   
    36    22    41 1   
    37    23    24 1   
    38    23    42 1   
    39    24    25 1   
    40    25    26 1   
    41    25    43 1   
    42    25    44 1   
    43    26    27 1   
    44    26    28 1   
    45    26    45 1   
    46    27    46 1   
    47    27    47 1   
    48    28    29 1   
    49    28    30 1   
@<TRIPOS>SUBSTRUCTURE
     1 UBE         1 TEMP              0 ****  ****    0 ROOT
