@<TRIPOS>MOLECULE
UBF
   34    35     1     0     0
SMALL
bcc


@<TRIPOS>ATOM
      1 O23          6.0470     0.8680    -0.5220 o          1 UBF      -0.827300
      2 C22          4.9100     0.5090    -0.8860 c          1 UBF       0.946200
      3 O24          4.5510     0.1380    -2.0200 o          1 UBF      -0.827300
      4 C21          3.8570     0.5300     0.1830 cc         1 UBF      -0.069700
      5 S20          4.3300     1.0250     1.7620 ss         1 UBF      -0.100800
      6 C19          2.7500     0.8070     2.3710 cc         1 UBF      -0.186100
      7 C18          1.8940     0.3730     1.4030 cd         1 UBF      -0.135000
      8 C17          2.5250     0.2120     0.1360 cd         1 UBF      -0.130300
      9 C16          1.8250    -0.2600    -1.1090 c3         1 UBF       0.179300
     10 N3           0.3930    -0.4610    -0.8980 n          1 UBF      -0.504400
     11 C4          -0.4170     0.6490    -1.0520 c          1 UBF       0.810500
     12 O15          0.0320     1.7410    -1.3220 o          1 UBF      -0.583500
     13 C2          -0.0340    -1.7310    -0.5170 c          1 UBF       0.741700
     14 O14          0.7540    -2.6390    -0.3460 o          1 UBF      -0.602500
     15 C1          -1.4660    -1.8450    -0.3540 cc         1 UBF      -0.293500
     16 BR13        -2.1560    -3.5130     0.1220 br         1 UBF      -0.080700
     17 C6          -2.2610    -0.7750    -0.5350 cd         1 UBF       0.094600
     18 N5          -1.7680     0.4410    -0.8780 n          1 UBF      -0.364000
     19 C7          -2.6730     1.5880    -0.9780 c3         1 UBF       0.069000
     20 C8          -2.7760     2.3820     0.3340 c3         1 UBF       0.005500
     21 N9          -3.1660     1.6030     1.4880 n8         1 UBF      -0.884800
     22 C10         -3.7550     3.5550     0.0700 c          1 UBF       0.937600
     23 O11         -3.3790     4.3750    -0.7910 o          1 UBF      -0.828300
     24 O12         -4.8250     3.5650     0.7020 o          1 UBF      -0.828300
     25 H19          2.5180     1.0050     3.4060 h4         1 UBF       0.136000
     26 H18          0.8490     0.1760     1.6010 ha         1 UBF       0.128000
     27 H161         1.9550     0.4540    -1.9170 h1         1 UBF       0.090200
     28 H162         2.2460    -1.2000    -1.4540 h1         1 UBF       0.090200
     29 H6          -3.3350    -0.8310    -0.4210 h4         1 UBF       0.155000
     30 H71         -2.3330     2.2260    -1.7880 h1         1 UBF       0.068200
     31 H72         -3.6510     1.1920    -1.2580 h1         1 UBF       0.068200
     32 H8          -1.7910     2.8130     0.5370 h1         1 UBF       0.077700
     33 HN91        -4.1020     1.2360     1.3770 hn         1 UBF       0.323800
     34 HN92        -2.5430     0.8220     1.6460 hn         1 UBF       0.323800
@<TRIPOS>BOND
     1     1     2 1   
     2     2     3 1   
     3     2     4 1   
     4     4     5 1   
     5     4     8 2   
     6     5     6 1   
     7     6     7 2   
     8     6    25 1   
     9     7     8 1   
    10     7    26 1   
    11     8     9 1   
    12     9    10 1   
    13     9    27 1   
    14     9    28 1   
    15    10    11 1   
    16    10    13 1   
    17    11    12 2   
    18    11    18 1   
    19    13    14 2   
    20    13    15 1   
    21    15    16 1   
    22    15    17 2   
    23    17    18 1   
    24    17    29 1   
    25    18    19 1   
    26    19    20 1   
    27    19    30 1   
    28    19    31 1   
    29    20    21 1   
    30    20    22 1   
    31    20    32 1   
    32    21    33 1   
    33    21    34 1   
    34    22    23 1   
    35    22    24 1   
@<TRIPOS>SUBSTRUCTURE
     1 UBF         1 TEMP              0 ****  ****    0 ROOT
