@<TRIPOS>MOLECULE
UBF
   34    35     1     0     0
SMALL
No Charge or Current Charge


@<TRIPOS>ATOM
      1 O23          6.1660     0.6680    -0.7500 o          1 UBF      -0.722000
      2 C22          4.9940     0.3960    -0.9680 c          1 UBF       0.735600
      3 O24          4.6040     0.0630    -2.0770 o          1 UBF      -0.722000
      4 C21          4.0290     0.4790     0.1640 cc         1 UBF      -0.214600
      5 S20          4.5650     0.9570     1.7720 ss         1 UBF       0.189000
      6 C19          2.9360     0.7960     2.3990 cc         1 UBF      -0.313000
      7 C18          2.0690     0.4020     1.4150 cd         1 UBF      -0.117000
      8 C17          2.6650     0.2130     0.1290 cd         1 UBF      -0.130300
      9 C16          1.8770    -0.2230    -1.0970 c3         1 UBF       0.179300
     10 N3           0.4250    -0.4480    -0.8660 n          1 UBF      -0.370400
     11 C4          -0.4450     0.6440    -1.0160 c          1 UBF       0.601000
     12 O15         -0.0290     1.7470    -1.3460 o          1 UBF      -0.508000
     13 C2           0.0140    -1.7330    -0.4890 c          1 UBF       0.599200
     14 O14          0.7980    -2.6640    -0.3580 o          1 UBF      -0.527000
     15 C1          -1.4390    -1.8810    -0.2680 cc         1 UBF      -0.293500
     16 Br13        -2.0580    -3.6020     0.2240 br         1 UBF      -0.080700
     17 C6          -2.2980    -0.8230    -0.4150 cd         1 UBF       0.044600
     18 N5          -1.8190     0.4310    -0.7640 n          1 UBF      -0.297000
     19 C7          -2.7710     1.5610    -0.9470 c3         1 UBF       0.069000
     20 C8          -2.9690     2.4370     0.3210 c3         1 UBF       0.005500
     21 N9          -3.4220     1.6120     1.5120 n8         1 UBF      -0.995200
     22 C10         -3.8540     3.6930    -0.0410 c          1 UBF       0.727000
     23 O11         -3.3810     4.8080     0.1350 o          1 UBF      -0.723000
     24 O12         -4.9970     3.5060    -0.4420 o          1 UBF      -0.723000
     25 H19          2.7390     1.0030     3.4430 h4         1 UBF       0.118000
     26 H18          1.0120     0.2490     1.6130 ha         1 UBF       0.110000
     27 H161         2.0090     0.5320    -1.8840 h1         1 UBF       0.090200
     28 H162         2.3290    -1.1410    -1.4930 h1         1 UBF       0.090200
     29 H6          -3.3750    -0.8800    -0.2740 h4         1 UBF       0.205000
     30 H71         -2.4260     2.2000    -1.7710 h1         1 UBF       0.068200
     31 H72         -3.7440     1.1590    -1.2590 h1         1 UBF       0.068200
     32 H8          -1.9790     2.8410     0.5740 h1         1 UBF       0.077700
     33 HN91        -4.3730     1.2640     1.3400 hn         1 UBF       0.379000
     34 HN92        -2.8470     0.7640     1.5750 hn         1 UBF       0.379000
@<TRIPOS>BOND
     1     1     2 1   
     2     2     3 1   
     3     2     4 1   
     4     4     5 1   
     5     4     8 2   
     6     5     6 1   
     7     6     7 2   
     8     6    25 1   
     9     7     8 1   
    10     7    26 1   
    11     8     9 1   
    12     9    10 1   
    13     9    27 1   
    14     9    28 1   
    15    10    11 1   
    16    10    13 1   
    17    11    12 2   
    18    11    18 1   
    19    13    14 2   
    20    13    15 1   
    21    15    16 1   
    22    15    17 2   
    23    17    18 1   
    24    17    29 1   
    25    18    19 1   
    26    19    20 1   
    27    19    30 1   
    28    19    31 1   
    29    20    21 1   
    30    20    22 1   
    31    20    32 1   
    32    21    33 1   
    33    21    34 1   
    34    22    23 1   
    35    22    24 1   
@<TRIPOS>SUBSTRUCTURE
     1 UBF         1 TEMP              0 ****  ****    0 ROOT
