@<TRIPOS>MOLECULE
UBH
   26    26     1     0     0
SMALL
abcg2


@<TRIPOS>ATOM
      1 C01        153.1220   143.8840    90.2870 c3         1 UBH       0.146900
      2 C3         152.3760   142.2170    91.8150 c6         1 UBH       0.185300
      3 C4         151.5790   140.9220    91.8230 c6         1 UBH       0.150300
      4 C5         151.2920   140.4800    93.2670 c6         1 UBH       0.141300
      5 C1         153.2600   141.5870    94.0810 c6         1 UBH       0.351300
      6 C2         153.6320   142.0850    92.6810 c6         1 UBH       0.120300
      7 C6         150.6330   139.1190    93.3440 c3         1 UBH      -0.089100
      8 O3         152.6750   142.5490    90.4700 os         1 UBH      -0.435000
      9 O5         152.5090   140.3950    94.0280 os         1 UBH      -0.476000
     10 O2         154.5180   141.1640    92.0530 oh         1 UBH      -0.695000
     11 O4         150.3510   141.1610    91.1370 oh         1 UBH      -0.713000
     12 H6         153.1880   144.0520    89.2130 h1         1 UBH       0.030033
     13 H7         152.4120   144.5980    90.7210 h1         1 UBH       0.030033
     14 H8         154.1070   144.0520    90.7320 h1         1 UBH       0.030033
     15 H3         151.7510   143.0050    92.2550 h1         1 UBH       0.064700
     16 H4         152.1540   140.1440    91.3120 h1         1 UBH       0.068700
     17 H5         150.6410   141.2350    93.7200 h1         1 UBH       0.056700
     18 H1         154.1680   141.3150    94.6270 h2         1 UBH       0.061700
     19 H2         154.1120   143.0610    92.7880 h1         1 UBH       0.052700
     20 H61        150.4510   138.8470    94.3840 hc         1 UBH       0.046367
     21 H62        149.6740   139.1290    92.8240 hc         1 UBH       0.046367
     22 H63        151.2710   138.3590    92.8880 hc         1 UBH       0.046367
     23 HO2        155.3590   141.1790    92.5280 ho         1 UBH       0.499000
     24 HO4        150.0080   140.3190    90.8150 ho         1 UBH       0.504000
     25 O1         152.5750   142.6320    94.7360 oh         1 UBH      -0.681000
     26 HO1        152.4560   142.3840    95.6620 ho         1 UBH       0.457000
@<TRIPOS>BOND
     1     1     8 1   
     2     1    12 1   
     3     1    13 1   
     4     1    14 1   
     5     2     3 1   
     6     2     6 1   
     7     2     8 1   
     8     2    15 1   
     9     3     4 1   
    10     3    11 1   
    11     3    16 1   
    12     4     7 1   
    13     4     9 1   
    14     4    17 1   
    15     5     6 1   
    16     5     9 1   
    17     5    18 1   
    18     5    25 1   
    19     6    10 1   
    20     6    19 1   
    21     7    20 1   
    22     7    21 1   
    23     7    22 1   
    24    10    23 1   
    25    11    24 1   
    26    25    26 1   
@<TRIPOS>SUBSTRUCTURE
     1 UBH         1 TEMP              0 ****  ****    0 ROOT
