@<TRIPOS>MOLECULE
UBH
   26    26     1     0     0
SMALL
No Charge or Current Charge


@<TRIPOS>ATOM
      1 C01        153.1270   143.7950    90.1260 c3         1 UBH       0.146900
      2 C3         152.3100   142.1730    91.8010 c6         1 UBH       0.185300
      3 C4         151.5130   140.8350    91.8910 c6         1 UBH       0.150300
      4 C5         151.2600   140.4720    93.3880 c6         1 UBH       0.141300
      5 C1         153.2850   141.6460    94.0990 c6         1 UBH       0.351300
      6 C2         153.6410   142.0630    92.6240 c6         1 UBH       0.120300
      7 C6         150.6010   139.0800    93.5690 c3         1 UBH      -0.089100
      8 O3         152.5130   142.5230    90.4040 os         1 UBH      -0.435000
      9 O5         152.5150   140.4270    94.1180 os         1 UBH      -0.476000
     10 O2         154.5560   141.1250    91.9940 oh         1 UBH      -0.695000
     11 O4         150.2830   140.9270    91.1380 oh         1 UBH      -0.713000
     12 H6         153.1540   143.9750    89.0440 h1         1 UBH       0.030033
     13 H7         152.5610   144.6110    90.5940 h1         1 UBH       0.030033
     14 H8         154.1590   143.8260    90.4980 h1         1 UBH       0.030033
     15 H3         151.6930   142.9640    92.2550 h1         1 UBH       0.064700
     16 H4         152.1440   140.0430    91.4610 h1         1 UBH       0.068700
     17 H5         150.5990   141.2240    93.8430 h1         1 UBH       0.056700
     18 H1         154.2220   141.4830    94.6550 h2         1 UBH       0.061700
     19 H2         154.1050   143.0590    92.6660 h1         1 UBH       0.052700
     20 H61        150.4680   138.8430    94.6310 hc         1 UBH       0.046367
     21 H62        149.6110   139.0460    93.0980 hc         1 UBH       0.046367
     22 H63        151.2130   138.2890    93.1200 hc         1 UBH       0.046367
     23 HO2        155.4140   141.1800    92.4760 ho         1 UBH       0.499000
     24 HO4        150.5270   141.3810    90.2960 ho         1 UBH       0.504000
     25 O1         152.5160   142.6410    94.7690 oh         1 UBH      -0.681000
     26 HO1        152.2860   142.2420    95.6350 ho         1 UBH       0.457000
@<TRIPOS>BOND
     1     1     8 1   
     2     1    12 1   
     3     1    13 1   
     4     1    14 1   
     5     2     3 1   
     6     2     6 1   
     7     2     8 1   
     8     2    15 1   
     9     3     4 1   
    10     3    11 1   
    11     3    16 1   
    12     4     7 1   
    13     4     9 1   
    14     4    17 1   
    15     5     6 1   
    16     5     9 1   
    17     5    18 1   
    18     5    25 1   
    19     6    10 1   
    20     6    19 1   
    21     7    20 1   
    22     7    21 1   
    23     7    22 1   
    24    10    23 1   
    25    11    24 1   
    26    25    26 1   
@<TRIPOS>SUBSTRUCTURE
     1 UBH         1 TEMP              0 ****  ****    0 ROOT
