@<TRIPOS>MOLECULE
UBN
   48    48     1     0     0
SMALL
abcg2


@<TRIPOS>ATOM
      1 C4         -18.4480   -31.4670     0.2050 c3         1 UBN      -0.075400
      2 C14         -9.2690   -27.1370     2.7710 c6         1 UBN      -0.083400
      3 C5         -17.0640   -31.0120     0.6490 c3         1 UBN      -0.078400
      4 C6         -16.9920   -30.7210     2.1450 c3         1 UBN      -0.071400
      5 C11        -10.3100   -27.9130     4.8640 c6         1 UBN      -0.083400
      6 C7         -15.5970   -30.3810     2.6580 c3         1 UBN      -0.090400
      7 C8         -14.9980   -29.1450     1.9980 c3         1 UBN       0.106000
      8 C9         -12.6970   -28.2590     2.0120 c          1 UBN       0.652100
      9 C10        -11.6880   -27.7810     4.2310 c6         1 UBN       0.098000
     10 C12         -9.3030   -26.9320     4.2790 c6         1 UBN      -0.062700
     11 C13         -7.9280   -27.0890     4.9100 c3         1 UBN      -0.085100
     12 N1         -13.7890   -28.7270     2.6720 ns         1 UBN      -0.522900
     13 N2         -11.6250   -27.8670     2.7800 n          1 UBN      -0.410800
     14 C3         -18.5520   -31.7060    -1.2950 c3         1 UBN      -0.076400
     15 C1         -20.0270   -32.4030    -3.2390 c3         1 UBN      -0.088100
     16 C2         -19.9330   -32.1720    -1.7380 c3         1 UBN      -0.074400
     17 O1         -12.6550   -28.2240     0.7840 o          1 UBN      -0.643100
     18 C15        -10.6490   -26.9830     2.1560 c6         1 UBN       0.098000
     19 H1         -19.1890   -30.7170     0.5030 hc         1 UBN       0.035700
     20 H2          -8.8750   -28.1350     2.5480 hc         1 UBN       0.049700
     21 H3          -8.5970   -26.4160     2.2980 hc         1 UBN       0.049700
     22 H4         -16.3250   -31.7800     0.3920 hc         1 UBN       0.042200
     23 H5         -16.7840   -30.1200     0.0800 hc         1 UBN       0.042200
     24 H6         -17.6770   -29.9020     2.3850 hc         1 UBN       0.038200
     25 H7         -17.3600   -31.5920     2.6950 hc         1 UBN       0.038200
     26 H8         -10.4160   -27.7640     5.9420 hc         1 UBN       0.049700
     27 H9          -9.9440   -28.9340     4.7180 hc         1 UBN       0.049700
     28 H10        -14.9240   -31.2300     2.5080 hc         1 UBN       0.042700
     29 H11        -15.6530   -30.2180     3.7390 hc         1 UBN       0.042700
     30 H12        -14.7570   -29.3480     0.9570 h1         1 UBN       0.053700
     31 H13        -15.7370   -28.3340     2.0000 h1         1 UBN       0.053700
     32 H14        -12.1480   -26.8340     4.5450 h1         1 UBN       0.043200
     33 H15        -12.3000   -28.5900     4.6280 h1         1 UBN       0.043200
     34 H16         -9.6640   -25.9140     4.4740 hc         1 UBN       0.044700
     35 H17         -7.9630   -26.9200     5.9880 hc         1 UBN       0.034700
     36 H18         -7.5370   -28.0950     4.7450 hc         1 UBN       0.034700
     37 H19         -7.2140   -26.3810     4.4860 hc         1 UBN       0.034700
     38 H20        -13.8920   -28.5450     3.6560 hn         1 UBN       0.301500
     39 H21        -17.8040   -32.4480    -1.5980 hc         1 UBN       0.038700
     40 H22        -21.0240   -32.7340    -3.5340 hc         1 UBN       0.031700
     41 H23        -19.8030   -31.4900    -3.7940 hc         1 UBN       0.031700
     42 H24        -19.3170   -33.1660    -3.5650 hc         1 UBN       0.031700
     43 H25        -20.6780   -31.4300    -1.4340 hc         1 UBN       0.035700
     44 H26        -20.1910   -33.0940    -1.2080 hc         1 UBN       0.035700
     45 H27        -10.9730   -25.9380     2.2620 h1         1 UBN       0.043200
     46 H28        -10.6090   -27.2000     1.0930 h1         1 UBN       0.043200
     47 H29        -18.7170   -32.3850     0.7390 hc         1 UBN       0.035700
     48 H30        -18.2930   -30.7840    -1.8270 hc         1 UBN       0.038700
@<TRIPOS>BOND
     1     1     3 1   
     2     1    14 1   
     3     1    19 1   
     4     1    47 1   
     5     2    10 1   
     6     2    18 1   
     7     2    20 1   
     8     2    21 1   
     9     3     4 1   
    10     3    22 1   
    11     3    23 1   
    12     4     6 1   
    13     4    24 1   
    14     4    25 1   
    15     5     9 1   
    16     5    10 1   
    17     5    26 1   
    18     5    27 1   
    19     6     7 1   
    20     6    28 1   
    21     6    29 1   
    22     7    12 1   
    23     7    30 1   
    24     7    31 1   
    25     8    12 1   
    26     8    13 1   
    27     8    17 2   
    28     9    13 1   
    29     9    32 1   
    30     9    33 1   
    31    10    11 1   
    32    10    34 1   
    33    11    35 1   
    34    11    36 1   
    35    11    37 1   
    36    12    38 1   
    37    13    18 1   
    38    14    16 1   
    39    14    39 1   
    40    14    48 1   
    41    15    16 1   
    42    15    40 1   
    43    15    41 1   
    44    15    42 1   
    45    16    43 1   
    46    16    44 1   
    47    18    45 1   
    48    18    46 1   
@<TRIPOS>SUBSTRUCTURE
     1 UBN         1 TEMP              0 ****  ****    0 ROOT
