@<TRIPOS>MOLECULE
UBN
   48    48     1     0     0
SMALL
No Charge or Current Charge


@<TRIPOS>ATOM
      1 C4         -18.3580   -31.6650     0.1100 c3         1 UBN      -0.075400
      2 C14         -9.0740   -27.7620     2.9820 c6         1 UBN      -0.083400
      3 C5         -17.0170   -31.0200     0.5260 c3         1 UBN      -0.078400
      4 C6         -16.6940   -31.2160     2.0260 c3         1 UBN      -0.071400
      5 C11        -10.4600   -27.2280     4.9850 c6         1 UBN      -0.083400
      6 C7         -15.3240   -30.6470     2.4610 c3         1 UBN      -0.090400
      7 C8         -15.2130   -29.1100     2.3480 c3         1 UBN       0.106000
      8 C9         -12.7430   -28.6470     2.1840 c          1 UBN       0.652100
      9 C10        -11.7610   -27.4020     4.1660 c6         1 UBN       0.098000
     10 C12         -9.2890   -26.7380     4.1130 c6         1 UBN      -0.062700
     11 C13         -7.9990   -26.5270     4.9500 c3         1 UBN      -0.085100
     12 N1         -13.9370   -28.6110     2.8650 ns         1 UBN      -0.522900
     13 N2         -11.6170   -28.1490     2.8740 n          1 UBN      -0.410800
     14 C3         -18.6840   -31.4680    -1.3870 c3         1 UBN      -0.076400
     15 C1         -20.3500   -31.9170    -3.2970 c3         1 UBN      -0.088100
     16 C2         -20.0240   -32.1130    -1.8030 c3         1 UBN      -0.074400
     17 O1         -12.6680   -29.0840     1.0450 o          1 UBN      -0.643100
     18 C15        -10.3450   -27.9350     2.1190 c6         1 UBN       0.098000
     19 H1         -19.1670   -31.2350     0.7140 hc         1 UBN       0.035700
     20 H2          -8.7930   -28.7340     3.4100 hc         1 UBN       0.049700
     21 H3          -8.2380   -27.4520     2.3410 hc         1 UBN       0.049700
     22 H4         -16.2080   -31.4520    -0.0760 hc         1 UBN       0.042200
     23 H5         -17.0540   -29.9490     0.2950 hc         1 UBN       0.042200
     24 H6         -17.4850   -30.7560     2.6320 hc         1 UBN       0.038200
     25 H7         -16.7100   -32.2900     2.2540 hc         1 UBN       0.038200
     26 H8         -10.6420   -26.5240     5.8090 hc         1 UBN       0.049700
     27 H9         -10.1980   -28.1880     5.4510 hc         1 UBN       0.049700
     28 H10        -14.5320   -31.1160     1.8650 hc         1 UBN       0.042700
     29 H11        -15.1450   -30.9350     3.5040 hc         1 UBN       0.042700
     30 H12        -15.3170   -28.8010     1.2990 h1         1 UBN       0.053700
     31 H13        -16.0260   -28.6430     2.9200 h1         1 UBN       0.053700
     32 H14        -12.1670   -26.4060     3.9370 h1         1 UBN       0.043200
     33 H15        -12.4900   -27.9090     4.8130 h1         1 UBN       0.043200
     34 H16         -9.5460   -25.7620     3.6750 hc         1 UBN       0.044700
     35 H17         -8.1590   -25.7860     5.7430 hc         1 UBN       0.034700
     36 H18         -7.6720   -27.4600     5.4240 hc         1 UBN       0.034700
     37 H19         -7.1760   -26.1650     4.3220 hc         1 UBN       0.034700
     38 H20        -13.9140   -28.2330     3.8010 hn         1 UBN       0.301500
     39 H21        -17.8750   -31.8980    -1.9910 hc         1 UBN       0.038700
     40 H22        -21.3070   -32.3900    -3.5440 hc         1 UBN       0.031700
     41 H23        -20.4200   -30.8500    -3.5420 hc         1 UBN       0.031700
     42 H24        -19.5720   -32.3660    -3.9260 hc         1 UBN       0.031700
     43 H25        -20.8360   -31.6840    -1.2030 hc         1 UBN       0.035700
     44 H26        -19.9950   -33.1870    -1.5830 hc         1 UBN       0.035700
     45 H27        -10.4700   -27.0370     1.4970 h1         1 UBN       0.043200
     46 H28        -10.1780   -28.7780     1.4330 h1         1 UBN       0.043200
     47 H29        -18.3260   -32.7380     0.3330 hc         1 UBN       0.035700
     48 H30        -18.7160   -30.3940    -1.6110 hc         1 UBN       0.038700
@<TRIPOS>BOND
     1     1     3 1   
     2     1    14 1   
     3     1    19 1   
     4     1    47 1   
     5     2    10 1   
     6     2    18 1   
     7     2    20 1   
     8     2    21 1   
     9     3     4 1   
    10     3    22 1   
    11     3    23 1   
    12     4     6 1   
    13     4    24 1   
    14     4    25 1   
    15     5     9 1   
    16     5    10 1   
    17     5    26 1   
    18     5    27 1   
    19     6     7 1   
    20     6    28 1   
    21     6    29 1   
    22     7    12 1   
    23     7    30 1   
    24     7    31 1   
    25     8    12 1   
    26     8    13 1   
    27     8    17 2   
    28     9    13 1   
    29     9    32 1   
    30     9    33 1   
    31    10    11 1   
    32    10    34 1   
    33    11    35 1   
    34    11    36 1   
    35    11    37 1   
    36    12    38 1   
    37    13    18 1   
    38    14    16 1   
    39    14    39 1   
    40    14    48 1   
    41    15    16 1   
    42    15    40 1   
    43    15    41 1   
    44    15    42 1   
    45    16    43 1   
    46    16    44 1   
    47    18    45 1   
    48    18    46 1   
@<TRIPOS>SUBSTRUCTURE
     1 UBN         1 TEMP              0 ****  ****    0 ROOT
