@<TRIPOS>MOLECULE
UBO
   23    23     1     0     0
SMALL
abcg2


@<TRIPOS>ATOM
      1 O3         152.5300   142.5530    94.6650 oh         1 UBO      -0.698000
      2 C5         153.1580   143.5240    98.2600 c6         1 UBO       0.160300
      3 C1         151.4220   141.8950    98.1660 c6         1 UBO       0.352300
      4 C3         152.6310   142.4160    96.0760 c6         1 UBO       0.179300
      5 C4         153.1250   143.6970    96.7350 c6         1 UBO       0.099300
      6 C2         151.2890   141.9880    96.6440 c6         1 UBO       0.160300
      7 C6         153.5270   144.7950    98.9950 c3         1 UBO      -0.089100
      8 O5         151.8590   143.1260    98.7200 os         1 UBO      -0.490000
      9 O2         150.2880   142.9280    96.2740 oh         1 UBO      -0.699000
     10 O4         154.4330   143.9400    96.2110 oh         1 UBO      -0.734000
     11 O1         150.1550   141.6150    98.6820 oh         1 UBO      -0.713000
     12 HO3        153.3660   142.9320    94.3630 ho         1 UBO       0.516000
     13 H4         153.8810   142.7310    98.4950 h1         1 UBO       0.043700
     14 H1         152.1430   141.1070    98.4260 h2         1 UBO       0.028700
     15 H3         153.3510   141.6230    96.3200 h1         1 UBO       0.039700
     16 H6         152.4540   144.5210    96.4790 h1         1 UBO       0.076700
     17 H2         151.0380   140.9920    96.2590 h1         1 UBO       0.061700
     18 H61        153.5420   144.6190   100.0710 hc         1 UBO       0.048700
     19 H62        154.5170   145.1360    98.6910 hc         1 UBO       0.048700
     20 H63        152.8030   145.5830    98.7770 hc         1 UBO       0.048700
     21 HO2        149.5130   142.7530    96.8260 ho         1 UBO       0.521000
     22 HO4        154.6190   144.8850    96.2550 ho         1 UBO       0.512000
     23 HO1        150.2290   141.4680    99.6340 ho         1 UBO       0.527000
@<TRIPOS>BOND
     1     1     4 1   
     2     1    12 1   
     3     2     5 1   
     4     2     7 1   
     5     2     8 1   
     6     2    13 1   
     7     3     6 1   
     8     3     8 1   
     9     3    11 1   
    10     3    14 1   
    11     4     5 1   
    12     4     6 1   
    13     4    15 1   
    14     5    10 1   
    15     5    16 1   
    16     6     9 1   
    17     6    17 1   
    18     7    18 1   
    19     7    19 1   
    20     7    20 1   
    21     9    21 1   
    22    10    22 1   
    23    11    23 1   
@<TRIPOS>SUBSTRUCTURE
     1 UBO         1 TEMP              0 ****  ****    0 ROOT
