@<TRIPOS>MOLECULE
UBO
   23    23     1     0     0
SMALL
No Charge or Current Charge


@<TRIPOS>ATOM
      1 O3         152.6300   142.5020    94.5710 oh         1 UBO      -0.698000
      2 C5         153.1540   143.4800    98.2220 c6         1 UBO       0.160300
      3 C1         151.4210   141.8050    98.1410 c6         1 UBO       0.352300
      4 C3         152.6390   142.3500    96.0030 c6         1 UBO       0.179300
      5 C4         153.1280   143.6730    96.6680 c6         1 UBO       0.099300
      6 C2         151.2510   141.9190    96.5860 c6         1 UBO       0.160300
      7 C6         153.4930   144.7800    98.9940 c3         1 UBO      -0.089100
      8 O5         151.8540   143.0530    98.6940 os         1 UBO      -0.490000
      9 O2         150.2040   142.8720    96.2660 oh         1 UBO      -0.699000
     10 O4         154.4230   144.0370    96.1320 oh         1 UBO      -0.734000
     11 O1         150.1730   141.5600    98.7640 oh         1 UBO      -0.713000
     12 HO3        153.4020   143.0930    94.3980 ho         1 UBO       0.516000
     13 H4         153.8950   142.7120    98.4890 h1         1 UBO       0.043700
     14 H1         152.1400   141.0110    98.3960 h2         1 UBO       0.028700
     15 H3         153.3620   141.5630    96.2690 h1         1 UBO       0.039700
     16 H6         152.3930   144.4610    96.4400 h1         1 UBO       0.076700
     17 H2         150.9970   140.9230    96.1920 h1         1 UBO       0.061700
     18 H61        153.4350   144.6170   100.0770 hc         1 UBO       0.048700
     19 H62        154.5090   145.1240    98.7700 hc         1 UBO       0.048700
     20 H63        152.7980   145.5890    98.7380 hc         1 UBO       0.048700
     21 HO2        149.6250   142.8590    97.0650 ho         1 UBO       0.521000
     22 HO4        154.6440   144.9360    96.4760 ho         1 UBO       0.512000
     23 HO1        150.3000   141.9070    99.6750 ho         1 UBO       0.527000
@<TRIPOS>BOND
     1     1     4 1   
     2     1    12 1   
     3     2     5 1   
     4     2     7 1   
     5     2     8 1   
     6     2    13 1   
     7     3     6 1   
     8     3     8 1   
     9     3    11 1   
    10     3    14 1   
    11     4     5 1   
    12     4     6 1   
    13     4    15 1   
    14     5    10 1   
    15     5    16 1   
    16     6     9 1   
    17     6    17 1   
    18     7    18 1   
    19     7    19 1   
    20     7    20 1   
    21     9    21 1   
    22    10    22 1   
    23    11    23 1   
@<TRIPOS>SUBSTRUCTURE
     1 UBO         1 TEMP              0 ****  ****    0 ROOT
