@<TRIPOS>MOLECULE
UBP
   30    30     1     0     0
SMALL
bcc


@<TRIPOS>ATOM
      1 N1          -1.0120    -0.6820     0.4060 n          1 UBP      -0.375000
      2 C2           0.1060     0.0610     0.0930 c          1 UBP       0.809500
      3 O2           0.1110     1.2750     0.1650 o          1 UBP      -0.627500
      4 N3           1.2190    -0.6520    -0.3050 n          1 UBP      -0.503400
      5 C4           1.3000    -2.0430    -0.3630 c          1 UBP       0.727700
      6 O4           2.3390    -2.5960    -0.6820 o          1 UBP      -0.637500
      7 C5           0.0870    -2.7390    -0.0200 cc         1 UBP      -0.382200
      8 C6          -0.9970    -2.0400     0.3450 cd         1 UBP       0.064600
      9 C7          -2.2560    -0.0120     0.7870 c3         1 UBP       0.062000
     10 C8          -3.2860     0.0140    -0.3550 c3         1 UBP       0.011500
     11 N8          -2.8040     0.5730    -1.5990 n8         1 UBP      -0.877800
     12 C9          -4.5320     0.7620     0.1800 c          1 UBP       0.937600
     13 O91         -4.8330     1.8400    -0.3610 o          1 UBP      -0.832800
     14 O92         -5.1040     0.2160     1.1450 o          1 UBP      -0.832800
     15 C1           2.4320     0.1200    -0.6060 c3         1 UBP       0.115000
     16 C3           3.2770     0.3560     0.6350 c3         1 UBP      -0.224400
     17 C10          4.5680     1.1520     0.3720 c          1 UBP       0.936600
     18 O3           5.2660     1.4050     1.3740 o          1 UBP      -0.853300
     19 O1           4.8160     1.4710    -0.8080 o          1 UBP      -0.853300
     20 H5           0.0710    -3.8170    -0.0460 ha         1 UBP       0.146000
     21 H6          -1.9220    -2.5280     0.6220 h4         1 UBP       0.148000
     22 H7          -2.6620    -0.5360     1.6510 h1         1 UBP       0.073200
     23 H7A         -2.0080     1.0000     1.1000 h1         1 UBP       0.073200
     24 H8          -3.5870    -1.0220    -0.5550 h1         1 UBP       0.034700
     25 HN8         -2.5490     1.5440    -1.4700 hn         1 UBP       0.331800
     26 HN8A        -1.9740     0.0870    -1.9130 hn         1 UBP       0.331800
     27 H1           2.9910    -0.4270    -1.3580 h1         1 UBP       0.068700
     28 H1A          2.1270     1.0610    -1.0560 h1         1 UBP       0.068700
     29 H3           2.6880     0.8820     1.3920 hc         1 UBP       0.030200
     30 H3A          3.5500    -0.6040     1.0840 hc         1 UBP       0.030200
@<TRIPOS>BOND
     1     1     2 1   
     2     1     8 1   
     3     1     9 1   
     4     2     3 2   
     5     2     4 1   
     6     4     5 1   
     7     4    15 1   
     8     5     6 2   
     9     5     7 1   
    10     7     8 2   
    11     7    20 1   
    12     8    21 1   
    13     9    10 1   
    14     9    22 1   
    15     9    23 1   
    16    10    11 1   
    17    10    12 1   
    18    10    24 1   
    19    11    25 1   
    20    11    26 1   
    21    12    13 1   
    22    12    14 1   
    23    15    16 1   
    24    15    27 1   
    25    15    28 1   
    26    16    17 1   
    27    16    29 1   
    28    16    30 1   
    29    17    18 1   
    30    17    19 1   
@<TRIPOS>SUBSTRUCTURE
     1 UBP         1 TEMP              0 ****  ****    0 ROOT
