@<TRIPOS>MOLECULE
UBP
   30    30     1     0     0
SMALL
No Charge or Current Charge


@<TRIPOS>ATOM
      1 N1          -1.0480    -0.7170     0.3890 n          1 UBP      -0.308000
      2 C2           0.1260     0.0320     0.1230 c          1 UBP       0.600000
      3 O2           0.1280     1.2540     0.2050 o          1 UBP      -0.552000
      4 N3           1.2900    -0.6730    -0.2400 n          1 UBP      -0.369400
      5 C4           1.3410    -2.0660    -0.3760 c          1 UBP       0.585200
      6 O4           2.3460    -2.6760    -0.7110 o          1 UBP      -0.562000
      7 C5           0.0890    -2.7570    -0.0830 cc         1 UBP      -0.432200
      8 C6          -1.0530    -2.0980     0.2880 cd         1 UBP       0.014600
      9 C7          -2.2960    -0.0150     0.8010 c3         1 UBP       0.062000
     10 C8          -3.3720     0.0790    -0.3150 c3         1 UBP       0.011500
     11 N8          -2.8310     0.7740    -1.5460 n8         1 UBP      -0.988200
     12 C9          -4.7110     0.6620     0.2930 c          1 UBP       0.727000
     13 O91         -4.7090     1.8110     0.7180 o          1 UBP      -0.727500
     14 O92         -5.7130    -0.0420     0.2740 o          1 UBP      -0.727500
     15 C1           2.5190     0.1040    -0.5570 c3         1 UBP       0.115000
     16 C3           3.4180     0.3340     0.6750 c3         1 UBP      -0.224400
     17 C10          4.6510     1.1310     0.2430 c          1 UBP       0.726000
     18 O3           4.5850     2.3500     0.2620 o          1 UBP      -0.748000
     19 O1           5.6260     0.5120    -0.1560 o          1 UBP      -0.748000
     20 H5           0.1180    -3.8360    -0.1770 ha         1 UBP       0.196000
     21 H6          -2.0060    -2.5730     0.5170 h4         1 UBP       0.198000
     22 H7          -2.7270    -0.5610     1.6510 h1         1 UBP       0.073200
     23 H7A         -2.0680     0.9930     1.1710 h1         1 UBP       0.073200
     24 H8          -3.6000    -0.9510    -0.6220 h1         1 UBP       0.034700
     25 HN8         -2.6410     1.7570    -1.3120 hn         1 UBP       0.387000
     26 HN8A        -1.9020     0.3940    -1.7570 hn         1 UBP       0.387000
     27 H1           3.0970    -0.4180    -1.3320 h1         1 UBP       0.068700
     28 H1A          2.2460     1.0750    -0.9920 h1         1 UBP       0.068700
     29 H3           2.8150     0.9070     1.3890 hc         1 UBP       0.030200
     30 H3A          3.7050    -0.6620     1.0320 hc         1 UBP       0.030200
@<TRIPOS>BOND
     1     1     2 1   
     2     1     8 1   
     3     1     9 1   
     4     2     3 2   
     5     2     4 1   
     6     4     5 1   
     7     4    15 1   
     8     5     6 2   
     9     5     7 1   
    10     7     8 2   
    11     7    20 1   
    12     8    21 1   
    13     9    10 1   
    14     9    22 1   
    15     9    23 1   
    16    10    11 1   
    17    10    12 1   
    18    10    24 1   
    19    11    25 1   
    20    11    26 1   
    21    12    13 1   
    22    12    14 1   
    23    15    16 1   
    24    15    27 1   
    25    15    28 1   
    26    16    17 1   
    27    16    29 1   
    28    16    30 1   
    29    17    18 1   
    30    17    19 1   
@<TRIPOS>SUBSTRUCTURE
     1 UBP         1 TEMP              0 ****  ****    0 ROOT
