@<TRIPOS>MOLECULE
UBQ
   57    57     1     0     0
SMALL
No Charge or Current Charge


@<TRIPOS>ATOM
      1 C4         -21.3090   -33.6790    -0.6480 c3         1 UBQ      -0.074400
      2 C14        -11.9910   -28.9040     4.8620 c6         1 UBQ      -0.092400
      3 C5         -20.1820   -33.7090    -1.7100 c3         1 UBQ      -0.074400
      4 C6         -20.0530   -32.4070    -2.5410 c3         1 UBQ      -0.071400
      5 C11        -16.5000   -28.5340     1.3060 c3         1 UBQ       0.106000
      6 C7         -19.7510   -31.1170    -1.7370 c3         1 UBQ      -0.073400
      7 C8         -18.4300   -31.1570    -0.9340 c3         1 UBQ      -0.074400
      8 C9         -18.1200   -29.8240    -0.2180 c3         1 UBQ      -0.072400
      9 C10        -16.8060   -29.8650     0.5910 c3         1 UBQ      -0.107400
     10 C12        -13.9960   -28.4820     1.5650 c          1 UBQ       0.653100
     11 C13        -13.1580   -29.1280     3.8710 c6         1 UBQ       0.113000
     12 N1         -15.2630   -28.6010     2.0860 ns         1 UBQ      -0.509900
     13 N2         -12.9310   -28.6200     2.4790 n          1 UBQ      -0.435800
     14 C3         -21.5330   -35.0250     0.0820 c3         1 UBQ      -0.074400
     15 C1         -20.6410   -36.7750     1.7450 c3         1 UBQ      -0.089100
     16 C2         -20.3480   -35.4790     0.9660 c3         1 UBQ      -0.076400
     17 O1         -13.8090   -28.2620     0.3780 o          1 UBQ      -0.645100
     18 C15        -10.6350   -29.3230     4.2640 c6         1 UBQ      -0.057700
     19 C16         -9.4760   -29.1330     5.2780 c3         1 UBQ      -0.087100
     20 C17        -10.4080   -28.5060     2.9780 c6         1 UBQ      -0.092400
     21 C18        -11.5370   -28.7340     1.9480 c6         1 UBQ       0.113000
     22 H1         -21.0920   -32.9060     0.1000 hc         1 UBQ       0.037700
     23 H2         -22.2470   -33.3900    -1.1370 hc         1 UBQ       0.037700
     24 H4         -20.3730   -34.5380    -2.4020 hc         1 UBQ       0.037200
     25 H5         -19.2210   -33.9260    -1.2300 hc         1 UBQ       0.037200
     26 H6         -19.2630   -32.5480    -3.2890 hc         1 UBQ       0.037200
     27 H7         -20.9820   -32.2560    -3.1050 hc         1 UBQ       0.037200
     28 H8         -16.4170   -27.7250     0.5680 h1         1 UBQ       0.055700
     29 H9         -17.3260   -28.2860     1.9860 h1         1 UBQ       0.055700
     30 H10        -19.7080   -30.2780    -2.4430 hc         1 UBQ       0.036700
     31 H11        -20.5850   -30.9020    -1.0580 hc         1 UBQ       0.036700
     32 H12        -18.4810   -31.9540    -0.1830 hc         1 UBQ       0.038700
     33 H13        -17.6030   -31.4040    -1.6110 hc         1 UBQ       0.038700
     34 H14        -18.0600   -29.0200    -0.9620 hc         1 UBQ       0.038200
     35 H15        -18.9500   -29.5760     0.4560 hc         1 UBQ       0.038200
     36 H16        -16.8650   -30.6670     1.3370 hc         1 UBQ       0.045200
     37 H17        -15.9760   -30.1130    -0.0820 hc         1 UBQ       0.045200
     38 H18        -14.0490   -28.6530     4.3040 h1         1 UBQ       0.048700
     39 H19        -15.3310   -28.7720     3.0800 hn         1 UBQ       0.299500
     40 H20        -22.4260   -34.9290     0.7120 hc         1 UBQ       0.036700
     41 H21        -21.7560   -35.8040    -0.6580 hc         1 UBQ       0.036700
     42 H22        -19.7750   -37.0590     2.3540 hc         1 UBQ       0.030700
     43 H23        -21.5010   -36.6420     2.4120 hc         1 UBQ       0.030700
     44 H24        -20.8610   -37.6000     1.0560 hc         1 UBQ       0.030700
     45 H25        -19.4600   -35.6400     0.3430 hc         1 UBQ       0.036700
     46 H26        -20.1000   -34.6830     1.6790 hc         1 UBQ       0.036700
     47 H27         -9.6410   -29.7280     6.1840 hc         1 UBQ       0.034367
     48 H28         -8.5180   -29.4470     4.8470 hc         1 UBQ       0.034367
     49 H29         -9.3780   -28.0830     5.5820 hc         1 UBQ       0.034367
     50 H31        -11.3980   -28.0180     1.1250 h1         1 UBQ       0.048700
     51 H34         -9.4430   -28.7700     2.5240 hc         1 UBQ       0.044950
     52 H30        -11.9580   -27.8420     5.1430 hc         1 UBQ       0.044950
     53 H32        -13.3630   -30.2060     3.8090 h1         1 UBQ       0.048700
     54 H33        -10.6640   -30.3940     4.0130 hc         1 UBQ       0.053700
     55 H35        -10.3530   -27.4360     3.2220 hc         1 UBQ       0.044950
     56 H36        -11.4210   -29.7390     1.5190 h1         1 UBQ       0.048700
     57 H3         -12.1880   -29.4620     5.7870 hc         1 UBQ       0.044950
@<TRIPOS>BOND
     1     1     3 1   
     2     1    14 1   
     3     1    22 1   
     4     1    23 1   
     5     2    11 1   
     6     2    18 1   
     7     2    52 1   
     8     2    57 1   
     9     3     4 1   
    10     3    24 1   
    11     3    25 1   
    12     4     6 1   
    13     4    26 1   
    14     4    27 1   
    15     5     9 1   
    16     5    12 1   
    17     5    28 1   
    18     5    29 1   
    19     6     7 1   
    20     6    30 1   
    21     6    31 1   
    22     7     8 1   
    23     7    32 1   
    24     7    33 1   
    25     8     9 1   
    26     8    34 1   
    27     8    35 1   
    28     9    36 1   
    29     9    37 1   
    30    10    12 1   
    31    10    13 1   
    32    10    17 2   
    33    11    13 1   
    34    11    38 1   
    35    11    53 1   
    36    12    39 1   
    37    13    21 1   
    38    14    16 1   
    39    14    40 1   
    40    14    41 1   
    41    15    16 1   
    42    15    42 1   
    43    15    43 1   
    44    15    44 1   
    45    16    45 1   
    46    16    46 1   
    47    18    19 1   
    48    18    20 1   
    49    18    54 1   
    50    19    47 1   
    51    19    48 1   
    52    19    49 1   
    53    20    21 1   
    54    20    51 1   
    55    20    55 1   
    56    21    50 1   
    57    21    56 1   
@<TRIPOS>SUBSTRUCTURE
     1 UBQ         1 TEMP              0 ****  ****    0 ROOT
