@<TRIPOS>MOLECULE
UBQ
   57    57     1     0     0
SMALL
abcg2


@<TRIPOS>ATOM
      1 C4         -21.0410   -33.7300    -0.7900 c3         1 UBQ      -0.074400
      2 C14        -12.3340   -29.4010     4.5200 c6         1 UBQ      -0.092400
      3 C5         -19.7630   -33.9250    -1.6000 c3         1 UBQ      -0.074400
      4 C6         -19.4290   -32.7530    -2.5210 c3         1 UBQ      -0.071400
      5 C11        -16.5780   -28.6840     1.5310 c3         1 UBQ       0.106000
      6 C7         -19.2070   -31.4150    -1.8190 c3         1 UBQ      -0.073400
      7 C8         -18.0530   -31.4120    -0.8230 c3         1 UBQ      -0.074400
      8 C9         -17.8660   -30.0610    -0.1460 c3         1 UBQ      -0.072400
      9 C10        -16.6500   -30.0030     0.7700 c3         1 UBQ      -0.107400
     10 C12        -14.2190   -28.0970     1.8160 c          1 UBQ       0.653100
     11 C13        -13.1700   -28.1950     4.0920 c6         1 UBQ       0.113000
     12 N1         -15.4000   -28.5240     2.3530 ns         1 UBQ      -0.509900
     13 N2         -13.1460   -28.0370     2.6510 n          1 UBQ      -0.435800
     14 C3         -21.4280   -34.9360     0.0620 c3         1 UBQ      -0.074400
     15 C1         -20.9380   -36.3600     2.1040 c3         1 UBQ      -0.089100
     16 C2         -20.4600   -35.2280     1.2040 c3         1 UBQ      -0.076400
     17 O1         -14.1320   -27.7580     0.6380 o          1 UBQ      -0.645100
     18 C15        -11.0930   -29.5590     3.6230 c6         1 UBQ      -0.057700
     19 C16         -9.9320   -30.1900     4.3770 c3         1 UBQ      -0.087100
     20 C17        -10.7300   -28.2040     3.0230 c6         1 UBQ      -0.092400
     21 C18        -11.8400   -27.7060     2.0960 c6         1 UBQ       0.113000
     22 H1         -20.9420   -32.8570    -0.1370 hc         1 UBQ       0.037700
     23 H2         -21.8610   -33.5010    -1.4790 hc         1 UBQ       0.037700
     24 H4         -19.8670   -34.8290    -2.2090 hc         1 UBQ       0.037200
     25 H5         -18.9200   -34.1170    -0.9290 hc         1 UBQ       0.037200
     26 H6         -18.5310   -33.0020    -3.0970 hc         1 UBQ       0.037200
     27 H7         -20.2340   -32.6360    -3.2540 hc         1 UBQ       0.037200
     28 H8         -16.6350   -27.8490     0.8330 h1         1 UBQ       0.055700
     29 H9         -17.4490   -28.5970     2.1860 h1         1 UBQ       0.055700
     30 H10        -19.0170   -30.6500    -2.5780 hc         1 UBQ       0.036700
     31 H11        -20.1240   -31.1020    -1.3100 hc         1 UBQ       0.036700
     32 H12        -18.2170   -32.1720    -0.0530 hc         1 UBQ       0.038700
     33 H13        -17.1290   -31.6970    -1.3390 hc         1 UBQ       0.038700
     34 H14        -17.7760   -29.2780    -0.9070 hc         1 UBQ       0.038200
     35 H15        -18.7690   -29.8210     0.4280 hc         1 UBQ       0.038200
     36 H16        -16.6810   -30.8340     1.4820 hc         1 UBQ       0.045200
     37 H17        -15.7390   -30.1330     0.1780 hc         1 UBQ       0.045200
     38 H18        -12.7680   -27.2840     4.5460 h1         1 UBQ       0.048700
     39 H19        -15.3810   -29.0780     3.1920 hn         1 UBQ       0.299500
     40 H20        -22.4240   -34.7650     0.4840 hc         1 UBQ       0.036700
     41 H21        -21.5180   -35.8230    -0.5750 hc         1 UBQ       0.036700
     42 H22        -20.2350   -36.5510     2.9150 hc         1 UBQ       0.030700
     43 H23        -21.9050   -36.1250     2.5520 hc         1 UBQ       0.030700
     44 H24        -21.0540   -37.2880     1.5420 hc         1 UBQ       0.030700
     45 H25        -19.4730   -35.4770     0.8060 hc         1 UBQ       0.036700
     46 H26        -20.3260   -34.3190     1.7980 hc         1 UBQ       0.036700
     47 H27        -10.2190   -31.1460     4.8170 hc         1 UBQ       0.034367
     48 H28         -9.0800   -30.3680     3.7190 hc         1 UBQ       0.034367
     49 H29         -9.5960   -29.5420     5.1910 hc         1 UBQ       0.034367
     50 H31        -11.7410   -26.6280     1.9270 h1         1 UBQ       0.048700
     51 H34         -9.8050   -28.2700     2.4460 hc         1 UBQ       0.044950
     52 H30        -12.0320   -29.2580     5.5620 hc         1 UBQ       0.044950
     53 H32        -14.1890   -28.2690     4.4640 h1         1 UBQ       0.048700
     54 H33        -11.3560   -30.2230     2.7920 hc         1 UBQ       0.053700
     55 H35        -10.5380   -27.4850     3.8260 hc         1 UBQ       0.044950
     56 H36        -11.7370   -28.1930     1.1260 h1         1 UBQ       0.048700
     57 H3         -12.9350   -30.3130     4.4890 hc         1 UBQ       0.044950
@<TRIPOS>BOND
     1     1     3 1   
     2     1    14 1   
     3     1    22 1   
     4     1    23 1   
     5     2    11 1   
     6     2    18 1   
     7     2    52 1   
     8     2    57 1   
     9     3     4 1   
    10     3    24 1   
    11     3    25 1   
    12     4     6 1   
    13     4    26 1   
    14     4    27 1   
    15     5     9 1   
    16     5    12 1   
    17     5    28 1   
    18     5    29 1   
    19     6     7 1   
    20     6    30 1   
    21     6    31 1   
    22     7     8 1   
    23     7    32 1   
    24     7    33 1   
    25     8     9 1   
    26     8    34 1   
    27     8    35 1   
    28     9    36 1   
    29     9    37 1   
    30    10    12 1   
    31    10    13 1   
    32    10    17 2   
    33    11    13 1   
    34    11    38 1   
    35    11    53 1   
    36    12    39 1   
    37    13    21 1   
    38    14    16 1   
    39    14    40 1   
    40    14    41 1   
    41    15    16 1   
    42    15    42 1   
    43    15    43 1   
    44    15    44 1   
    45    16    45 1   
    46    16    46 1   
    47    18    19 1   
    48    18    20 1   
    49    18    54 1   
    50    19    47 1   
    51    19    48 1   
    52    19    49 1   
    53    20    21 1   
    54    20    51 1   
    55    20    55 1   
    56    21    50 1   
    57    21    56 1   
@<TRIPOS>SUBSTRUCTURE
     1 UBQ         1 TEMP              0 ****  ****    0 ROOT
