@<TRIPOS>MOLECULE
UBS
   61    61     1     0     0
SMALL
No Charge or Current Charge


@<TRIPOS>ATOM
      1 C3          -7.5020    -0.5380    -1.8010 ca         1 UBS      -0.085500
      2 C2          -8.7340    -1.1770    -1.5730 ca         1 UBS      -0.125000
      3 C1          -9.4820    -0.8730    -0.4230 ca         1 UBS      -0.120000
      4 C6          -8.9970     0.0690     0.5000 ca         1 UBS      -0.125000
      5 C5          -7.7650     0.7080     0.2730 ca         1 UBS      -0.085500
      6 C4          -7.0120     0.4090    -0.8800 ca         1 UBS      -0.074300
      7 C7          -5.6780     1.1030    -1.1280 c3         1 UBS       0.229900
      8 O8          -4.6350     0.3170    -0.5280 os         1 UBS      -0.476100
      9 C9          -3.3590     0.7740    -0.6430 c          1 UBS       0.632100
     10 O21         -3.0150     1.7940    -1.2200 o          1 UBS      -0.542000
     11 N10         -2.5140    -0.1110    -0.0220 ns         1 UBS      -0.441900
     12 C11         -1.0390     0.0590     0.1100 c3         1 UBS      -0.257000
     13 P12         -0.4380     1.1050     1.5220 p5         1 UBS       1.361300
     14 O22         -0.9850     0.7210     2.8520 o          1 UBS      -0.834000
     15 O23         -0.5310     2.5650     1.2570 o          1 UBS      -0.834000
     16 N13          1.1490     0.6920     1.5350 n7         1 UBS      -0.979500
     17 C14          2.1200     0.7550     0.3940 c3         1 UBS       0.168500
     18 C15          3.5320     0.1850     0.7970 c          1 UBS       0.593100
     19 O24          4.2430     0.7050     1.6540 o          1 UBS      -0.674100
     20 C20          2.2430     2.1920    -0.1950 c3         1 UBS      -0.090400
     21 C21          3.2780     2.3670    -1.3460 c3         1 UBS      -0.058700
     22 C22          2.9620     1.4790    -2.5740 c3         1 UBS      -0.084600
     23 C23          3.3890     3.8510    -1.7630 c3         1 UBS      -0.084600
     24 N16          3.9210    -0.9580     0.1210 ns         1 UBS      -0.469900
     25 C17          5.1980    -1.6900     0.3200 c3         1 UBS      -0.028300
     26 C18          5.8110    -2.0490    -1.0730 c          1 UBS       0.712000
     27 O19          5.1240    -2.6780    -1.8680 o          1 UBS      -0.737000
     28 C25          5.0270    -2.9420     1.2390 c3         1 UBS      -0.062700
     29 C26          6.3660    -3.6880     1.4560 c3         1 UBS      -0.076600
     30 C31          4.3730    -2.6050     2.6030 c3         1 UBS      -0.076600
     31 O32          6.9110    -1.5960    -1.3560 o          1 UBS      -0.737000
     32 H3          -6.9280    -0.7810    -2.6920 ha         1 UBS       0.121500
     33 H2          -9.1080    -1.9070    -2.2870 ha         1 UBS       0.101000
     34 H1         -10.4350    -1.3670    -0.2470 ha         1 UBS       0.095000
     35 H6          -9.5750     0.3040     1.3910 ha         1 UBS       0.101000
     36 H5          -7.3950     1.4350     0.9930 ha         1 UBS       0.121500
     37 H7          -5.5150     1.2050    -2.2100 h1         1 UBS       0.051200
     38 H7A         -5.7040     2.1120    -0.6940 h1         1 UBS       0.051200
     39 HN10        -2.9650    -0.9050     0.4180 hn         1 UBS       0.307500
     40 H11         -0.5790    -0.9280     0.2410 h1         1 UBS       0.066200
     41 H11A        -0.6410     0.5100    -0.8060 h1         1 UBS       0.066200
     42 HN13         1.4560     1.3440     2.2520 hn         1 UBS       0.452000
     43 H14          1.7500     0.1060    -0.4110 h1         1 UBS       0.065700
     44 H20          1.2680     2.5090    -0.5810 hc         1 UBS       0.045200
     45 H20A         2.5020     2.8820     0.6180 hc         1 UBS       0.045200
     46 H21          4.2670     2.0730    -0.9720 hc         1 UBS       0.059700
     47 H22          3.0080     0.4150    -2.3200 hc         1 UBS       0.025533
     48 H22A         1.9610     1.6970    -2.9660 hc         1 UBS       0.025533
     49 H22B         3.6880     1.6580    -3.3760 hc         1 UBS       0.025533
     50 H23          3.6690     4.4760    -0.9050 hc         1 UBS       0.025533
     51 H23A         4.1560     3.9810    -2.5360 hc         1 UBS       0.025533
     52 H23B         2.4350     4.2190    -2.1590 hc         1 UBS       0.025533
     53 HN16         3.2780    -1.3190    -0.5740 hn         1 UBS       0.327500
     54 H17          5.9100    -1.0110     0.8060 h1         1 UBS       0.061700
     55 H25          4.3510    -3.6380     0.7260 hc         1 UBS       0.047700
     56 H26          7.1030    -3.0320     1.9340 hc         1 UBS       0.020367
     57 H26A         6.2210    -4.5650     2.0970 hc         1 UBS       0.020367
     58 H26B         6.7820    -4.0400     0.5050 hc         1 UBS       0.020367
     59 H31          3.3610    -2.2040     2.4710 hc         1 UBS       0.020367
     60 H31A         4.2890    -3.5050     3.2240 hc         1 UBS       0.020367
     61 H31B         4.9700    -1.8670     3.1500 hc         1 UBS       0.020367
@<TRIPOS>BOND
     1     1     2 ar  
     2     1     6 ar  
     3     1    32 1   
     4     2     3 ar  
     5     2    33 1   
     6     3     4 ar  
     7     3    34 1   
     8     4     5 ar  
     9     4    35 1   
    10     5     6 ar  
    11     5    36 1   
    12     6     7 1   
    13     7     8 1   
    14     7    37 1   
    15     7    38 1   
    16     8     9 1   
    17     9    10 2   
    18     9    11 1   
    19    11    12 1   
    20    11    39 1   
    21    12    13 1   
    22    12    40 1   
    23    12    41 1   
    24    13    14 1   
    25    13    15 1   
    26    13    16 1   
    27    16    17 1   
    28    16    42 1   
    29    17    18 1   
    30    17    20 1   
    31    17    43 1   
    32    18    19 2   
    33    18    24 1   
    34    20    21 1   
    35    20    44 1   
    36    20    45 1   
    37    21    22 1   
    38    21    23 1   
    39    21    46 1   
    40    22    47 1   
    41    22    48 1   
    42    22    49 1   
    43    23    50 1   
    44    23    51 1   
    45    23    52 1   
    46    24    25 1   
    47    24    53 1   
    48    25    26 1   
    49    25    28 1   
    50    25    54 1   
    51    26    27 1   
    52    26    31 1   
    53    28    29 1   
    54    28    30 1   
    55    28    55 1   
    56    29    56 1   
    57    29    57 1   
    58    29    58 1   
    59    30    59 1   
    60    30    60 1   
    61    30    61 1   
@<TRIPOS>SUBSTRUCTURE
     1 UBS         1 TEMP              0 ****  ****    0 ROOT
