@<TRIPOS>MOLECULE
UBS
   61    61     1     0     0
SMALL
abcg2


@<TRIPOS>ATOM
      1 C3          -6.9750    -1.5420    -0.9120 ca         1 UBS      -0.085500
      2 C2          -8.3150    -1.2920    -0.6430 ca         1 UBS      -0.125000
      3 C1          -8.7690     0.0150    -0.5340 ca         1 UBS      -0.120000
      4 C6          -7.8810     1.0710    -0.6980 ca         1 UBS      -0.125000
      5 C5          -6.5440     0.8180    -0.9680 ca         1 UBS      -0.085500
      6 C4          -6.0790    -0.4900    -1.0780 ca         1 UBS      -0.074300
      7 C7          -4.6270    -0.7560    -1.3370 c3         1 UBS       0.229900
      8 O8          -3.9600    -0.6810    -0.0750 os         1 UBS      -0.476100
      9 C9          -2.6210    -0.7840    -0.0870 c          1 UBS       0.632100
     10 O21         -1.9680    -0.9000    -1.1040 o          1 UBS      -0.542000
     11 N10         -2.1350    -0.7920     1.1660 ns         1 UBS      -0.441900
     12 C11         -0.7360    -0.5380     1.4420 c3         1 UBS      -0.257000
     13 P12         -0.4320     1.2610     1.7340 p5         1 UBS       1.361300
     14 O22         -0.8900     1.6180     3.1280 o          1 UBS      -0.834000
     15 O23         -0.9940     1.9990     0.5430 o          1 UBS      -0.834000
     16 N13          1.2710     1.2840     1.7480 n7         1 UBS      -0.979500
     17 C14          2.0380     1.3570     0.5220 c3         1 UBS       0.168500
     18 C15          3.2970     0.5210     0.7250 c          1 UBS       0.593100
     19 O24          4.1280     0.8360     1.5720 o          1 UBS      -0.674100
     20 C20          2.3850     2.7880     0.1180 c3         1 UBS      -0.090400
     21 C21          3.2550     2.9380    -1.1310 c3         1 UBS      -0.058700
     22 C22          2.6470     2.2510    -2.3530 c3         1 UBS      -0.084600
     23 C23          3.4900     4.4190    -1.4170 c3         1 UBS      -0.084600
     24 N16          3.3930    -0.5560    -0.0590 ns         1 UBS      -0.469900
     25 C17          4.4840    -1.5070    -0.0800 c3         1 UBS      -0.028300
     26 C18          4.9110    -1.7260    -1.5500 c          1 UBS       0.712000
     27 O19          3.9810    -1.7970    -2.3780 o          1 UBS      -0.737000
     28 C25          4.0530    -2.8340     0.5760 c3         1 UBS      -0.062700
     29 C26          5.1690    -3.8740     0.5320 c3         1 UBS      -0.076600
     30 C31          3.5960    -2.6160     2.0150 c3         1 UBS      -0.076600
     31 O32          6.1290    -1.8330    -1.7790 o          1 UBS      -0.737000
     32 H3          -6.6250    -2.5640    -1.0000 ha         1 UBS       0.121500
     33 H2          -9.0030    -2.1180    -0.5200 ha         1 UBS       0.101000
     34 H1          -9.8130     0.2110    -0.3270 ha         1 UBS       0.095000
     35 H6          -8.2300     2.0920    -0.6160 ha         1 UBS       0.101000
     36 H5          -5.8560     1.6450    -1.0980 ha         1 UBS       0.121500
     37 H7          -4.4870    -1.7450    -1.7800 h1         1 UBS       0.051200
     38 H7A         -4.2160    -0.0160    -2.0270 h1         1 UBS       0.051200
     39 HN10        -2.7840    -0.5950     1.9120 hn         1 UBS       0.307500
     40 H11         -0.4300    -1.1220     2.3120 h1         1 UBS       0.066200
     41 H11A        -0.1430    -0.8950     0.6000 h1         1 UBS       0.066200
     42 HN13         1.6960     1.7720     2.5240 hn         1 UBS       0.452000
     43 H14          1.4280     0.9110    -0.2680 h1         1 UBS       0.065700
     44 H20          1.4370     3.3140    -0.0320 hc         1 UBS       0.045200
     45 H20A         2.8860     3.2740     0.9610 hc         1 UBS       0.045200
     46 H21          4.2310     2.4800    -0.9310 hc         1 UBS       0.059700
     47 H22          2.6490     1.1640    -2.2630 hc         1 UBS       0.025533
     48 H22A         1.6150     2.5740    -2.5090 hc         1 UBS       0.025533
     49 H22B         3.2100     2.4950    -3.2560 hc         1 UBS       0.025533
     50 H23          3.9160     4.9310    -0.5510 hc         1 UBS       0.025533
     51 H23A         4.1760     4.5580    -2.2540 hc         1 UBS       0.025533
     52 H23B         2.5520     4.9200    -1.6680 hc         1 UBS       0.025533
     53 HN16         2.7010    -0.6950    -0.7800 hn         1 UBS       0.327500
     54 H17          5.3120    -1.0870     0.4940 h1         1 UBS       0.061700
     55 H25          3.2030    -3.2190     0.0000 hc         1 UBS       0.047700
     56 H26          6.0660    -3.5080     1.0380 hc         1 UBS       0.020367
     57 H26A         4.8560    -4.7870     1.0400 hc         1 UBS       0.020367
     58 H26B         5.4500    -4.1460    -0.4840 hc         1 UBS       0.020367
     59 H31          2.7630    -1.9170     2.0820 hc         1 UBS       0.020367
     60 H31A         3.2680    -3.5570     2.4610 hc         1 UBS       0.020367
     61 H31B         4.4120    -2.2260     2.6280 hc         1 UBS       0.020367
@<TRIPOS>BOND
     1     1     2 ar  
     2     1     6 ar  
     3     1    32 1   
     4     2     3 ar  
     5     2    33 1   
     6     3     4 ar  
     7     3    34 1   
     8     4     5 ar  
     9     4    35 1   
    10     5     6 ar  
    11     5    36 1   
    12     6     7 1   
    13     7     8 1   
    14     7    37 1   
    15     7    38 1   
    16     8     9 1   
    17     9    10 2   
    18     9    11 1   
    19    11    12 1   
    20    11    39 1   
    21    12    13 1   
    22    12    40 1   
    23    12    41 1   
    24    13    14 1   
    25    13    15 1   
    26    13    16 1   
    27    16    17 1   
    28    16    42 1   
    29    17    18 1   
    30    17    20 1   
    31    17    43 1   
    32    18    19 2   
    33    18    24 1   
    34    20    21 1   
    35    20    44 1   
    36    20    45 1   
    37    21    22 1   
    38    21    23 1   
    39    21    46 1   
    40    22    47 1   
    41    22    48 1   
    42    22    49 1   
    43    23    50 1   
    44    23    51 1   
    45    23    52 1   
    46    24    25 1   
    47    24    53 1   
    48    25    26 1   
    49    25    28 1   
    50    25    54 1   
    51    26    27 1   
    52    26    31 1   
    53    28    29 1   
    54    28    30 1   
    55    28    55 1   
    56    29    56 1   
    57    29    57 1   
    58    29    58 1   
    59    30    59 1   
    60    30    60 1   
    61    30    61 1   
@<TRIPOS>SUBSTRUCTURE
     1 UBS         1 TEMP              0 ****  ****    0 ROOT
