@<TRIPOS>MOLECULE
UBT
   52    52     1     0     0
SMALL
abcg2


@<TRIPOS>ATOM
      1 C3           7.3680     1.1920     0.3430 ca         1 UBT      -0.085500
      2 C2           8.5960     0.5480     0.2620 ca         1 UBT      -0.124000
      3 C1           8.7840    -0.4740    -0.6580 ca         1 UBT      -0.118000
      4 C6           7.7420    -0.8470    -1.4980 ca         1 UBT      -0.124000
      5 C5           6.5170    -0.2000    -1.4160 ca         1 UBT      -0.085500
      6 C4           6.3200     0.8260    -0.4950 ca         1 UBT      -0.075300
      7 C7           4.9850     1.5000    -0.3870 c3         1 UBT       0.230900
      8 O8           4.1600     0.6520     0.4150 os         1 UBT      -0.475100
      9 C9           2.8830     1.0290     0.5900 c          1 UBT       0.625100
     10 O19          2.4100     2.0370     0.1030 o          1 UBT      -0.551000
     11 N10          2.2430     0.1650     1.3930 ns         1 UBT      -0.444900
     12 C11          0.8050     0.1630     1.5680 c3         1 UBT      -0.247000
     13 P12          0.0260    -1.1070     0.4770 p5         1 UBT       1.353300
     14 O20          0.0320    -0.6000    -0.9440 o          1 UBT      -0.831500
     15 O21          0.6910    -2.4200     0.8230 o          1 UBT      -0.831500
     16 N13         -1.5810    -1.0940     1.0600 n7         1 UBT      -0.963500
     17 C14         -2.7150    -0.9110     0.1760 c3         1 UBT       0.168500
     18 C15         -3.8990    -0.4730     1.0310 c          1 UBT       0.587100
     19 O23         -4.3170    -1.1830     1.9430 o          1 UBT      -0.686100
     20 C18         -3.0720    -2.1800    -0.6040 c3         1 UBT      -0.095400
     21 C20         -4.2930    -2.0930    -1.5200 c3         1 UBT      -0.055700
     22 C22         -4.1450    -1.0220    -2.5970 c3         1 UBT      -0.083100
     23 C24         -4.5610    -3.4550    -2.1550 c3         1 UBT      -0.083100
     24 N16         -4.4360     0.7060     0.7210 ns         1 UBT      -0.469900
     25 C17         -5.5670     1.2910     1.3930 c3         1 UBT      -0.050000
     26 C27         -5.9280     2.6570     0.7710 c          1 UBT       0.711000
     27 O28         -5.2100     3.0630    -0.1630 o          1 UBT      -0.740000
     28 O31         -6.9120     3.2250     1.2750 o          1 UBT      -0.740000
     29 H3           7.2270     1.9910     1.0620 ha         1 UBT       0.120500
     30 H2           9.4050     0.8450     0.9170 ha         1 UBT       0.102000
     31 H1           9.7400    -0.9780    -0.7240 ha         1 UBT       0.096000
     32 H6           7.8830    -1.6420    -2.2200 ha         1 UBT       0.102000
     33 H5           5.7100    -0.4910    -2.0780 ha         1 UBT       0.120500
     34 H7           5.0860     2.4830     0.0790 h1         1 UBT       0.049200
     35 H7A          4.5400     1.6380    -1.3750 h1         1 UBT       0.049200
     36 HN10         2.7190    -0.6930     1.6250 hn         1 UBT       0.319500
     37 H11          0.5790    -0.0510     2.6150 h1         1 UBT       0.063700
     38 H11A         0.4140     1.1570     1.3550 h1         1 UBT       0.063700
     39 HN13        -1.7620    -1.8020     1.7600 hn         1 UBT       0.438000
     40 H14         -2.4590    -0.1180    -0.5290 h1         1 UBT       0.082700
     41 H18         -2.1950    -2.4530    -1.1980 hc         1 UBT       0.044200
     42 H18A        -3.2230    -2.9910     0.1160 hc         1 UBT       0.044200
     43 H20         -5.1690    -1.8410    -0.9120 hc         1 UBT       0.053700
     44 H22         -5.0030    -1.0290    -3.2710 hc         1 UBT       0.023867
     45 H22A        -4.0750    -0.0180    -2.1780 hc         1 UBT       0.023867
     46 H22B        -3.2490    -1.1900    -3.2000 hc         1 UBT       0.023867
     47 H24         -4.7030    -4.2270    -1.3950 hc         1 UBT       0.023867
     48 H24A        -5.4580    -3.4340    -2.7770 hc         1 UBT       0.023867
     49 H24B        -3.7260    -3.7650    -2.7880 hc         1 UBT       0.023867
     50 HN16        -4.0480     1.2760    -0.0170 hn         1 UBT       0.341500
     51 H17         -6.4370     0.6300     1.3350 h1         1 UBT       0.025200
     52 H17A        -5.3570     1.4330     2.4580 h1         1 UBT       0.025200
@<TRIPOS>BOND
     1     1     2 ar  
     2     1     6 ar  
     3     1    29 1   
     4     2     3 ar  
     5     2    30 1   
     6     3     4 ar  
     7     3    31 1   
     8     4     5 ar  
     9     4    32 1   
    10     5     6 ar  
    11     5    33 1   
    12     6     7 1   
    13     7     8 1   
    14     7    34 1   
    15     7    35 1   
    16     8     9 1   
    17     9    10 2   
    18     9    11 1   
    19    11    12 1   
    20    11    36 1   
    21    12    13 1   
    22    12    37 1   
    23    12    38 1   
    24    13    14 1   
    25    13    15 1   
    26    13    16 1   
    27    16    17 1   
    28    16    39 1   
    29    17    18 1   
    30    17    20 1   
    31    17    40 1   
    32    18    19 2   
    33    18    24 1   
    34    20    21 1   
    35    20    41 1   
    36    20    42 1   
    37    21    22 1   
    38    21    23 1   
    39    21    43 1   
    40    22    44 1   
    41    22    45 1   
    42    22    46 1   
    43    23    47 1   
    44    23    48 1   
    45    23    49 1   
    46    24    25 1   
    47    24    50 1   
    48    25    26 1   
    49    25    51 1   
    50    25    52 1   
    51    26    27 1   
    52    26    28 1   
@<TRIPOS>SUBSTRUCTURE
     1 UBT         1 TEMP              0 ****  ****    0 ROOT
