@<TRIPOS>MOLECULE
UBT
   52    52     1     0     0
SMALL
No Charge or Current Charge


@<TRIPOS>ATOM
      1 C3           7.6760     0.8610     0.7620 ca         1 UBT      -0.085500
      2 C2           8.9260     0.2160     0.7510 ca         1 UBT      -0.124000
      3 C1           9.3100    -0.5560    -0.3580 ca         1 UBT      -0.118000
      4 C6           8.4430    -0.6850    -1.4560 ca         1 UBT      -0.124000
      5 C5           7.1930    -0.0400    -1.4470 ca         1 UBT      -0.085500
      6 C4           6.8030     0.7380    -0.3380 ca         1 UBT      -0.075300
      7 C7           5.4510     1.4380    -0.3280 c3         1 UBT       0.230900
      8 O8           4.4810     0.5500     0.2530 os         1 UBT      -0.475100
      9 C9           3.2000     0.9970     0.3520 c          1 UBT       0.625100
     10 O19          2.7970     2.0950    -0.0010 o          1 UBT      -0.551000
     11 N10          2.4340     0.0210     0.9380 ns         1 UBT      -0.444900
     12 C11          0.9660     0.1080     1.1770 c3         1 UBT      -0.247000
     13 P12         -0.1400    -0.4150    -0.2190 p5         1 UBT       1.353300
     14 O20         -0.2010     0.5500    -1.3520 o          1 UBT      -0.831500
     15 O21          0.1250    -1.8240    -0.6150 o          1 UBT      -0.831500
     16 N13         -1.5730    -0.3700     0.5820 n7         1 UBT      -0.963500
     17 C14         -2.9220    -0.5730    -0.0360 c3         1 UBT       0.168500
     18 C15         -4.0840    -0.2430     0.9770 c          1 UBT       0.587100
     19 O23         -4.2810    -0.8840     2.0070 o          1 UBT      -0.686100
     20 C18         -3.0780    -2.0080    -0.6240 c3         1 UBT      -0.095400
     21 C20         -4.4710    -2.3450    -1.2330 c3         1 UBT      -0.055700
     22 C22         -4.8530    -1.4110    -2.4060 c3         1 UBT      -0.083100
     23 C24         -4.5340    -3.8250    -1.6740 c3         1 UBT      -0.083100
     24 N16         -4.8770     0.8370     0.6410 ns         1 UBT      -0.469900
     25 C17         -6.0370     1.3180     1.4250 c3         1 UBT      -0.050000
     26 C27         -6.6440     2.6320     0.8490 c          1 UBT       0.711000
     27 O28         -6.4090     2.9280    -0.3150 o          1 UBT      -0.740000
     28 O31         -7.3070     3.3340     1.5990 o          1 UBT      -0.740000
     29 H3           7.3850     1.4550     1.6250 ha         1 UBT       0.120500
     30 H2           9.5950     0.3150     1.6030 ha         1 UBT       0.102000
     31 H1          10.2770    -1.0550    -0.3660 ha         1 UBT       0.096000
     32 H6           8.7390    -1.2830    -2.3150 ha         1 UBT       0.102000
     33 H5           6.5270    -0.1470    -2.3000 ha         1 UBT       0.120500
     34 H7           5.5240     2.3670     0.2530 h1         1 UBT       0.049200
     35 H7A          5.1680     1.7040    -1.3550 h1         1 UBT       0.049200
     36 HN10         2.9260    -0.8370     1.1610 hn         1 UBT       0.319500
     37 H11          0.7120    -0.5250     2.0350 h1         1 UBT       0.063700
     38 H11A         0.6950     1.1420     1.4180 h1         1 UBT       0.063700
     39 HN13        -1.4230    -1.1230     1.2480 hn         1 UBT       0.438000
     40 H14         -3.0340     0.1370    -0.8670 h1         1 UBT       0.082700
     41 H18         -2.3280    -2.1610    -1.4080 hc         1 UBT       0.044200
     42 H18A        -2.8570    -2.7350     0.1680 hc         1 UBT       0.044200
     43 H20         -5.2310    -2.2210    -0.4510 hc         1 UBT       0.053700
     44 H22         -5.8220    -1.7010    -2.8300 hc         1 UBT       0.023867
     45 H22A        -4.9390    -0.3700    -2.0750 hc         1 UBT       0.023867
     46 H22B        -4.1030    -1.4590    -3.2050 hc         1 UBT       0.023867
     47 H24         -4.3190    -4.4920    -0.8300 hc         1 UBT       0.023867
     48 H24A        -5.5320    -4.0760    -2.0530 hc         1 UBT       0.023867
     49 H24B        -3.8040    -4.0290    -2.4670 hc         1 UBT       0.023867
     50 HN16        -4.6500     1.3320    -0.2160 hn         1 UBT       0.341500
     51 H17         -6.8160     0.5440     1.4230 h1         1 UBT       0.025200
     52 H17A        -5.7190     1.5000     2.4600 h1         1 UBT       0.025200
@<TRIPOS>BOND
     1     1     2 ar  
     2     1     6 ar  
     3     1    29 1   
     4     2     3 ar  
     5     2    30 1   
     6     3     4 ar  
     7     3    31 1   
     8     4     5 ar  
     9     4    32 1   
    10     5     6 ar  
    11     5    33 1   
    12     6     7 1   
    13     7     8 1   
    14     7    34 1   
    15     7    35 1   
    16     8     9 1   
    17     9    10 2   
    18     9    11 1   
    19    11    12 1   
    20    11    36 1   
    21    12    13 1   
    22    12    37 1   
    23    12    38 1   
    24    13    14 1   
    25    13    15 1   
    26    13    16 1   
    27    16    17 1   
    28    16    39 1   
    29    17    18 1   
    30    17    20 1   
    31    17    40 1   
    32    18    19 2   
    33    18    24 1   
    34    20    21 1   
    35    20    41 1   
    36    20    42 1   
    37    21    22 1   
    38    21    23 1   
    39    21    43 1   
    40    22    44 1   
    41    22    45 1   
    42    22    46 1   
    43    23    47 1   
    44    23    48 1   
    45    23    49 1   
    46    24    25 1   
    47    24    50 1   
    48    25    26 1   
    49    25    51 1   
    50    25    52 1   
    51    26    27 1   
    52    26    28 1   
@<TRIPOS>SUBSTRUCTURE
     1 UBT         1 TEMP              0 ****  ****    0 ROOT
