@<TRIPOS>MOLECULE
UBU
   53    53     1     0     0
SMALL
abcg2


@<TRIPOS>ATOM
      1 C23         -5.3140    -0.6060    -1.4860 ca         1 UBU      -0.086000
      2 C22         -6.5910    -0.1620    -1.7930 ca         1 UBU      -0.121000
      3 C21         -7.6360    -0.3720    -0.8990 ca         1 UBU      -0.112000
      4 C20         -7.3950    -1.0270     0.3000 ca         1 UBU      -0.121000
      5 C19         -6.1130    -1.4670     0.6060 ca         1 UBU      -0.086000
      6 C1          -5.0630    -1.2620    -0.2820 ca         1 UBU      -0.084300
      7 C2          -3.6770    -1.7270     0.0510 c3         1 UBU       0.231900
      8 O3          -2.9050    -0.5620     0.3500 os         1 UBU      -0.467100
      9 C4          -1.6190    -0.7570     0.6840 c          1 UBU       0.634100
     10 O26         -1.1020    -1.8550     0.7430 o          1 UBU      -0.571000
     11 N5          -1.0230     0.4120     0.9660 ns         1 UBU      -0.447900
     12 C6           0.4010     0.5480     1.1820 c3         1 UBU      -0.264000
     13 P7           1.2090     1.3250    -0.2870 p5         1 UBU       1.363300
     14 O24          1.2550     0.3210    -1.4210 o          1 UBU      -0.818500
     15 O8           0.5170     2.6510    -0.4820 o          1 UBU      -0.818500
     16 N9           2.8120     1.5770     0.2190 n7         1 UBU      -0.983500
     17 C10          3.9200     0.7170    -0.1480 c3         1 UBU       0.178500
     18 C11          3.8960    -0.5880     0.6590 c          1 UBU       0.554100
     19 N12          3.0590    -1.5160     0.1690 ns         1 UBU      -0.507900
     20 C13          2.7730    -2.7560     0.8610 c3         1 UBU       0.108000
     21 C14          1.9280    -3.6650    -0.0110 c3         1 UBU      -0.108100
     22 C15          5.2520     1.4370     0.0040 c3         1 UBU      -0.064400
     23 C16          5.3570     2.7470    -0.7790 c3         1 UBU      -0.055700
     24 C17          6.7470     3.3470    -0.5910 c3         1 UBU      -0.085100
     25 C18          5.0430     2.5650    -2.2600 c3         1 UBU      -0.085100
     26 O25          4.5640    -0.7620     1.6720 o          1 UBU      -0.655100
     27 H23         -4.5060    -0.4450    -2.1900 ha         1 UBU       0.119000
     28 H22         -6.7750     0.3460    -2.7310 ha         1 UBU       0.106500
     29 H21         -8.6330    -0.0290    -1.1410 ha         1 UBU       0.102000
     30 H20         -8.2040    -1.1970     0.9980 ha         1 UBU       0.106500
     31 H19         -5.9300    -1.9780     1.5440 ha         1 UBU       0.119000
     32 H2          -3.6950    -2.4050     0.9060 h1         1 UBU       0.049700
     33 H2A         -3.2360    -2.2610    -0.7930 h1         1 UBU       0.049700
     34 HN5         -1.5330     1.2600     0.7760 hn         1 UBU       0.332500
     35 H6           0.5700     1.1690     2.0660 h1         1 UBU       0.056200
     36 H6A          0.8260    -0.4310     1.3930 h1         1 UBU       0.056200
     37 HN9          2.9530     2.0950     1.0750 hn         1 UBU       0.441000
     38 H10          3.7880     0.4490    -1.1980 h1         1 UBU       0.080700
     39 HN12         2.4250    -1.2210    -0.5680 hn         1 UBU       0.366500
     40 H13          3.7120    -3.2480     1.1190 h1         1 UBU       0.033200
     41 H13A         2.2520    -2.5600     1.8040 h1         1 UBU       0.033200
     42 H14          0.9730    -3.1980    -0.2490 hc         1 UBU       0.041033
     43 H14A         2.4390    -3.9060    -0.9440 hc         1 UBU       0.041033
     44 H14B         1.7200    -4.5980     0.5110 hc         1 UBU       0.041033
     45 H15          5.4420     1.6360     1.0630 hc         1 UBU       0.038200
     46 H15A         6.0480     0.7610    -0.3260 hc         1 UBU       0.038200
     47 H16          4.6280     3.4500    -0.3650 hc         1 UBU       0.062700
     48 H17          7.5170     2.7040    -1.0270 hc         1 UBU       0.026367
     49 H17A         6.8260     4.3250    -1.0690 hc         1 UBU       0.026367
     50 H17B         6.9860     3.4750     0.4670 hc         1 UBU       0.026367
     51 H18          5.6800     1.7970    -2.7050 hc         1 UBU       0.026367
     52 H18A         4.0040     2.2750    -2.4220 hc         1 UBU       0.026367
     53 H18B         5.2120     3.4910    -2.8120 hc         1 UBU       0.026367
@<TRIPOS>BOND
     1     1     2 ar  
     2     1     6 ar  
     3     1    27 1   
     4     2     3 ar  
     5     2    28 1   
     6     3     4 ar  
     7     3    29 1   
     8     4     5 ar  
     9     4    30 1   
    10     5     6 ar  
    11     5    31 1   
    12     6     7 1   
    13     7     8 1   
    14     7    32 1   
    15     7    33 1   
    16     8     9 1   
    17     9    10 2   
    18     9    11 1   
    19    11    12 1   
    20    11    34 1   
    21    12    13 1   
    22    12    35 1   
    23    12    36 1   
    24    13    14 1   
    25    13    15 1   
    26    13    16 1   
    27    16    17 1   
    28    16    37 1   
    29    17    18 1   
    30    17    22 1   
    31    17    38 1   
    32    18    19 1   
    33    18    26 2   
    34    19    20 1   
    35    19    39 1   
    36    20    21 1   
    37    20    40 1   
    38    20    41 1   
    39    21    42 1   
    40    21    43 1   
    41    21    44 1   
    42    22    23 1   
    43    22    45 1   
    44    22    46 1   
    45    23    24 1   
    46    23    25 1   
    47    23    47 1   
    48    24    48 1   
    49    24    49 1   
    50    24    50 1   
    51    25    51 1   
    52    25    52 1   
    53    25    53 1   
@<TRIPOS>SUBSTRUCTURE
     1 UBU         1 TEMP              0 ****  ****    0 ROOT
