@<TRIPOS>MOLECULE
UBU
   53    53     1     0     0
SMALL
No Charge or Current Charge


@<TRIPOS>ATOM
      1 C23         -6.0960    -0.0940    -1.2080 ca         1 UBU      -0.086000
      2 C22         -7.4070     0.1380    -0.7540 ca         1 UBU      -0.121000
      3 C21         -7.9630    -0.6840     0.2400 ca         1 UBU      -0.112000
      4 C20         -7.2080    -1.7380     0.7820 ca         1 UBU      -0.121000
      5 C19         -5.8970    -1.9700     0.3290 ca         1 UBU      -0.086000
      6 C1          -5.3340    -1.1500    -0.6700 ca         1 UBU      -0.084300
      7 C2          -3.9150    -1.4030    -1.1630 c3         1 UBU       0.231900
      8 O3          -3.0070    -0.6500    -0.3430 os         1 UBU      -0.467100
      9 C4          -1.6800    -0.7450    -0.6260 c          1 UBU       0.634100
     10 O26         -1.1850    -1.4220    -1.5140 o          1 UBU      -0.571000
     11 N5          -0.9810     0.0290     0.2650 ns         1 UBU      -0.447900
     12 C6           0.4960     0.2240     0.2600 c3         1 UBU      -0.264000
     13 P7           1.1640     1.5290    -0.8820 p5         1 UBU       1.363300
     14 O24          1.3820     1.0290    -2.2680 o          1 UBU      -0.818500
     15 O8           0.3690     2.7820    -0.7650 o          1 UBU      -0.818500
     16 N9           2.6280     1.8270    -0.1980 n7         1 UBU      -0.983500
     17 C10          3.7520     0.8400    -0.1240 c3         1 UBU       0.178500
     18 C11          3.5330    -0.3300     0.9050 c          1 UBU       0.554100
     19 N12          3.5530    -1.6070     0.3740 ns         1 UBU      -0.507900
     20 C13          3.3440    -2.8350     1.1430 c3         1 UBU       0.108000
     21 C14          1.8570    -3.0880     1.4480 c3         1 UBU      -0.108100
     22 C15          5.0740     1.5880     0.2080 c3         1 UBU      -0.064400
     23 C16          5.5500     2.6360    -0.8420 c3         1 UBU      -0.055700
     24 C17          6.7850     3.4090    -0.3250 c3         1 UBU      -0.085100
     25 C18          5.8400     2.0110    -2.2280 c3         1 UBU      -0.085100
     26 O25          3.3510    -0.1360     2.1030 o          1 UBU      -0.655100
     27 H23         -5.6720     0.5490    -1.9770 ha         1 UBU       0.119000
     28 H22         -7.9900     0.9550    -1.1730 ha         1 UBU       0.106500
     29 H21         -8.9770    -0.5050     0.5910 ha         1 UBU       0.102000
     30 H20         -7.6370    -2.3740     1.5530 ha         1 UBU       0.106500
     31 H19         -5.3170    -2.7860     0.7550 ha         1 UBU       0.119000
     32 H2          -3.6930    -2.4770    -1.1030 h1         1 UBU       0.049700
     33 H2A         -3.8330    -1.1000    -2.2150 h1         1 UBU       0.049700
     34 HN5         -1.5510     0.5390     0.9310 hn         1 UBU       0.332500
     35 H6           0.8130     0.4840     1.2760 h1         1 UBU       0.056200
     36 H6A          0.9740    -0.7180    -0.0290 h1         1 UBU       0.056200
     37 HN9          2.3670     2.1100     0.7420 hn         1 UBU       0.441000
     38 H10          3.8840     0.3650    -1.1050 h1         1 UBU       0.080700
     39 HN12         3.7070    -1.6890    -0.6250 hn         1 UBU       0.366500
     40 H13          3.7430    -3.6790     0.5650 h1         1 UBU       0.033200
     41 H13A         3.9080    -2.7730     2.0820 h1         1 UBU       0.033200
     42 H14          1.4370    -2.2740     2.0500 hc         1 UBU       0.041033
     43 H14A         1.2790    -3.1680     0.5200 hc         1 UBU       0.041033
     44 H14B         1.7380    -4.0230     2.0080 hc         1 UBU       0.041033
     45 H15          4.9580     2.0850     1.1790 hc         1 UBU       0.038200
     46 H15A         5.8700     0.8440     0.3390 hc         1 UBU       0.038200
     47 H16          4.7480     3.3720    -0.9750 hc         1 UBU       0.062700
     48 H17          7.6350     2.7320    -0.1730 hc         1 UBU       0.026367
     49 H17A         7.0860     4.1830    -1.0410 hc         1 UBU       0.026367
     50 H17B         6.5640     3.9020     0.6300 hc         1 UBU       0.026367
     51 H18          6.5900     1.2150    -2.1500 hc         1 UBU       0.026367
     52 H18A         4.9310     1.5880    -2.6710 hc         1 UBU       0.026367
     53 H18B         6.2190     2.7700    -2.9220 hc         1 UBU       0.026367
@<TRIPOS>BOND
     1     1     2 ar  
     2     1     6 ar  
     3     1    27 1   
     4     2     3 ar  
     5     2    28 1   
     6     3     4 ar  
     7     3    29 1   
     8     4     5 ar  
     9     4    30 1   
    10     5     6 ar  
    11     5    31 1   
    12     6     7 1   
    13     7     8 1   
    14     7    32 1   
    15     7    33 1   
    16     8     9 1   
    17     9    10 2   
    18     9    11 1   
    19    11    12 1   
    20    11    34 1   
    21    12    13 1   
    22    12    35 1   
    23    12    36 1   
    24    13    14 1   
    25    13    15 1   
    26    13    16 1   
    27    16    17 1   
    28    16    37 1   
    29    17    18 1   
    30    17    22 1   
    31    17    38 1   
    32    18    19 1   
    33    18    26 2   
    34    19    20 1   
    35    19    39 1   
    36    20    21 1   
    37    20    40 1   
    38    20    41 1   
    39    21    42 1   
    40    21    43 1   
    41    21    44 1   
    42    22    23 1   
    43    22    45 1   
    44    22    46 1   
    45    23    24 1   
    46    23    25 1   
    47    23    47 1   
    48    24    48 1   
    49    24    49 1   
    50    24    50 1   
    51    25    51 1   
    52    25    52 1   
    53    25    53 1   
@<TRIPOS>SUBSTRUCTURE
     1 UBU         1 TEMP              0 ****  ****    0 ROOT
