@<TRIPOS>MOLECULE
UBV
   64    64     1     0     0
SMALL
No Charge or Current Charge


@<TRIPOS>ATOM
      1 C3          -6.3220    -1.9670     0.1860 ca         1 UBV      -0.086000
      2 C2          -7.5130    -2.2480    -0.5060 ca         1 UBV      -0.125500
      3 C1          -7.5060    -3.1520    -1.5810 ca         1 UBV      -0.121000
      4 C6          -6.3060    -3.7730    -1.9670 ca         1 UBV      -0.125500
      5 C5          -5.1140    -3.4920    -1.2760 ca         1 UBV      -0.086000
      6 C4          -5.1150    -2.5890    -0.1940 ca         1 UBV      -0.071300
      7 C7          -3.8250    -2.2870     0.5560 c3         1 UBV       0.229900
      8 O8          -3.1660    -1.1850    -0.0900 os         1 UBV      -0.479100
      9 C9          -1.9800    -0.7710     0.4310 c          1 UBV       0.623100
     10 O21         -1.4250    -1.2470     1.4090 o          1 UBV      -0.538000
     11 N10         -1.5030     0.2690    -0.3240 ns         1 UBV      -0.445900
     12 C11         -0.2100     0.9730    -0.0920 c3         1 UBV      -0.252000
     13 P12         -0.0090     2.6570    -0.8350 p5         1 UBV       1.357300
     14 O22         -1.1040     3.5990    -0.4780 o          1 UBV      -0.837500
     15 O23          0.2770     2.6060    -2.2920 o          1 UBV      -0.837500
     16 N13          1.3490     3.2170    -0.1070 n7         1 UBV      -0.961500
     17 C14          2.7060     2.6100    -0.2700 c3         1 UBV       0.176500
     18 C15          2.9190     1.2060     0.4200 c          1 UBV       0.616100
     19 O28          2.7600     1.0130     1.6220 o          1 UBV      -0.612100
     20 C24          3.7730     3.6140     0.2450 c3         1 UBV      -0.088400
     21 C25          3.8420     4.9870    -0.4880 c3         1 UBV      -0.060700
     22 C26          4.8690     5.9200     0.1940 c3         1 UBV      -0.083100
     23 C27          4.1500     4.8500    -1.9980 c3         1 UBV      -0.083100
     24 N16          3.3190     0.1920    -0.4340 ns         1 UBV      -0.460900
     25 C17          3.5830    -1.2140    -0.0350 c3         1 UBV      -0.021300
     26 C18          4.6540    -1.8650    -0.9730 c          1 UBV       0.719000
     27 O19          4.6680    -1.5540    -2.1580 o          1 UBV      -0.742500
     28 C29          2.2680    -2.0490     0.0830 c3         1 UBV      -0.048700
     29 C30          2.5110    -3.3940     0.8250 c3         1 UBV      -0.072400
     30 C            1.5630    -2.2520    -1.2850 c3         1 UBV      -0.074100
     31 C31          1.2280    -4.1770     1.1790 c3         1 UBV      -0.082100
     32 O20          5.5400    -2.5320    -0.4570 o          1 UBV      -0.742500
     33 H3          -6.3350    -1.2640     1.0160 ha         1 UBV       0.120000
     34 H2          -8.4410    -1.7650    -0.2080 ha         1 UBV       0.100000
     35 H1          -8.4280    -3.3690    -2.1160 ha         1 UBV       0.094000
     36 H6          -6.2990    -4.4710    -2.8000 ha         1 UBV       0.100000
     37 H5          -4.1880    -3.9760    -1.5810 ha         1 UBV       0.120000
     38 H7          -4.0560    -2.0430     1.6010 h1         1 UBV       0.050200
     39 H7A         -3.1830    -3.1790     0.5530 h1         1 UBV       0.050200
     40 HN10        -2.0930     0.5510    -1.0990 hn         1 UBV       0.312500
     41 H11         -0.0440     1.0900     0.9850 h1         1 UBV       0.075700
     42 H11A         0.5920     0.3640    -0.5130 h1         1 UBV       0.075700
     43 HN13         1.3570     4.1210    -0.5670 hn         1 UBV       0.428000
     44 H14          2.8930     2.4540    -1.3400 h1         1 UBV       0.016700
     45 H24          3.5960     3.7880     1.3140 hc         1 UBV       0.063700
     46 H24A         4.7580     3.1350     0.1750 hc         1 UBV       0.063700
     47 H25          2.8650     5.4770    -0.3950 hc         1 UBV       0.038700
     48 H26          5.8800     5.5000     0.1330 hc         1 UBV       0.021867
     49 H26A         4.8770     6.9060    -0.2860 hc         1 UBV       0.021867
     50 H26B         4.6200     6.0640     1.2530 hc         1 UBV       0.021867
     51 H27          5.0900     4.3080    -2.1580 hc         1 UBV       0.021867
     52 H27A         3.3490     4.3140    -2.5200 hc         1 UBV       0.021867
     53 H27B         4.2420     5.8380    -2.4650 hc         1 UBV       0.021867
     54 HN16         3.4450     0.4340    -1.4100 hn         1 UBV       0.284500
     55 H17          4.0420    -1.1780     0.9620 h1         1 UBV       0.065700
     56 H29          1.5830    -1.4690     0.7120 hc         1 UBV       0.023700
     57 H30          3.1610    -4.0380     0.2200 hc         1 UBV       0.056200
     58 H30A         3.0530    -3.1920     1.7570 hc         1 UBV       0.056200
     59 H            1.4850    -1.3090    -1.8370 hc         1 UBV       0.019700
     60 HA           2.1140    -2.9660    -1.9080 hc         1 UBV       0.019700
     61 HB           0.5450    -2.6340    -1.1460 hc         1 UBV       0.019700
     62 H31          0.5410    -3.5530     1.7640 hc         1 UBV       0.009700
     63 H31A         0.7080    -4.5180     0.2770 hc         1 UBV       0.009700
     64 H31B         1.4780    -5.0610     1.7770 hc         1 UBV       0.009700
@<TRIPOS>BOND
     1     1     2 ar  
     2     1     6 ar  
     3     1    33 1   
     4     2     3 ar  
     5     2    34 1   
     6     3     4 ar  
     7     3    35 1   
     8     4     5 ar  
     9     4    36 1   
    10     5     6 ar  
    11     5    37 1   
    12     6     7 1   
    13     7     8 1   
    14     7    38 1   
    15     7    39 1   
    16     8     9 1   
    17     9    10 2   
    18     9    11 1   
    19    11    12 1   
    20    11    40 1   
    21    12    13 1   
    22    12    41 1   
    23    12    42 1   
    24    13    14 1   
    25    13    15 1   
    26    13    16 1   
    27    16    17 1   
    28    16    43 1   
    29    17    18 1   
    30    17    20 1   
    31    17    44 1   
    32    18    19 2   
    33    18    24 1   
    34    20    21 1   
    35    20    45 1   
    36    20    46 1   
    37    21    22 1   
    38    21    23 1   
    39    21    47 1   
    40    22    48 1   
    41    22    49 1   
    42    22    50 1   
    43    23    51 1   
    44    23    52 1   
    45    23    53 1   
    46    24    25 1   
    47    24    54 1   
    48    25    26 1   
    49    25    28 1   
    50    25    55 1   
    51    26    27 1   
    52    26    32 1   
    53    28    29 1   
    54    28    30 1   
    55    28    56 1   
    56    29    31 1   
    57    29    57 1   
    58    29    58 1   
    59    30    59 1   
    60    30    60 1   
    61    30    61 1   
    62    31    62 1   
    63    31    63 1   
    64    31    64 1   
@<TRIPOS>SUBSTRUCTURE
     1 UBV         1 TEMP              0 ****  ****    0 ROOT
