@<TRIPOS>MOLECULE
UBV
   64    64     1     0     0
SMALL
abcg2


@<TRIPOS>ATOM
      1 C3          -7.1710    -1.7410     0.9360 ca         1 UBV      -0.086000
      2 C2          -8.4880    -1.6640     0.5010 ca         1 UBV      -0.125500
      3 C1          -8.7680    -1.6100    -0.8580 ca         1 UBV      -0.121000
      4 C6          -7.7280    -1.6330    -1.7790 ca         1 UBV      -0.125500
      5 C5          -6.4140    -1.7110    -1.3400 ca         1 UBV      -0.086000
      6 C4          -6.1230    -1.7670     0.0210 ca         1 UBV      -0.071300
      7 C7          -4.7010    -1.8250     0.4910 c3         1 UBV       0.229900
      8 O8          -4.2270    -0.4780     0.5570 os         1 UBV      -0.479100
      9 C9          -2.9540    -0.3030     0.9490 c          1 UBV       0.623100
     10 O21         -2.2100    -1.2220     1.2290 o          1 UBV      -0.538000
     11 N10         -2.6550     1.0040     1.0190 ns         1 UBV      -0.445900
     12 C11         -1.2960     1.4900     1.1520 c3         1 UBV      -0.252000
     13 P12         -0.6420     1.9870    -0.4990 p5         1 UBV       1.357300
     14 O22         -1.5460     3.0920    -1.0020 o          1 UBV      -0.837500
     15 O23         -0.4310     0.7380    -1.3180 o          1 UBV      -0.837500
     16 N13          0.8780     2.6670    -0.1170 n7         1 UBV      -0.961500
     17 C14          2.1000     1.9930    -0.4760 c3         1 UBV       0.176500
     18 C15          2.2510     0.6820     0.2870 c          1 UBV       0.616100
     19 O28          1.8850     0.5500     1.4470 o          1 UBV      -0.612100
     20 C24          3.3250     2.8490    -0.1270 c3         1 UBV      -0.088400
     21 C25          3.4100     4.2060    -0.8320 c3         1 UBV      -0.060700
     22 C26          4.7260     4.8830    -0.4620 c3         1 UBV      -0.083100
     23 C27          3.2670     4.0920    -2.3460 c3         1 UBV      -0.083100
     24 N16          2.8740    -0.2930    -0.3910 ns         1 UBV      -0.460900
     25 C17          3.4250    -1.4500     0.2800 c3         1 UBV      -0.021300
     26 C18          4.4730    -1.0530     1.3510 c          1 UBV       0.719000
     27 O19          5.1100    -0.0020     1.1640 o          1 UBV      -0.742500
     28 C29          4.0150    -2.4100    -0.7720 c3         1 UBV      -0.048700
     29 C30          4.2440    -3.8060    -0.1900 c3         1 UBV      -0.072400
     30 C            5.2790    -1.8600    -1.4310 c3         1 UBV      -0.074100
     31 C31          4.6300    -4.8490    -1.2310 c3         1 UBV      -0.082100
     32 O20          4.6080    -1.8530     2.3000 o          1 UBV      -0.742500
     33 H3          -6.9590    -1.7870     1.9980 ha         1 UBV       0.120000
     34 H2          -9.2930    -1.6500     1.2230 ha         1 UBV       0.100000
     35 H1          -9.7940    -1.5520    -1.1990 ha         1 UBV       0.094000
     36 H6          -7.9400    -1.5950    -2.8400 ha         1 UBV       0.100000
     37 H5          -5.6060    -1.7340    -2.0620 ha         1 UBV       0.120000
     38 H7          -4.6410    -2.2980     1.4740 h1         1 UBV       0.050200
     39 H7A         -4.0900    -2.4080    -0.2020 h1         1 UBV       0.050200
     40 HN10        -3.3320     1.6570     0.6570 hn         1 UBV       0.312500
     41 H11         -1.2870     2.3410     1.8370 h1         1 UBV       0.075700
     42 H11A        -0.6740     0.7140     1.5900 h1         1 UBV       0.075700
     43 HN13         0.9140     3.6650    -0.2640 hn         1 UBV       0.428000
     44 H14          2.1460     1.7620    -1.5500 h1         1 UBV       0.016700
     45 H24          3.3460     3.0080     0.9550 hc         1 UBV       0.063700
     46 H24A         4.2200     2.2670    -0.3680 hc         1 UBV       0.063700
     47 H25          2.6020     4.8490    -0.4630 hc         1 UBV       0.038700
     48 H26          5.5770     4.3250    -0.8590 hc         1 UBV       0.021867
     49 H26A         4.7780     5.8960    -0.8650 hc         1 UBV       0.021867
     50 H26B         4.8500     4.9500     0.6200 hc         1 UBV       0.021867
     51 H27          4.0000     3.3940    -2.7580 hc         1 UBV       0.021867
     52 H27A         2.2750     3.7450    -2.6390 hc         1 UBV       0.021867
     53 H27B         3.4260     5.0600    -2.8240 hc         1 UBV       0.021867
     54 HN16         3.2130    -0.0730    -1.3130 hn         1 UBV       0.284500
     55 H17          2.6050    -1.9760     0.7790 h1         1 UBV       0.065700
     56 H29          3.2470    -2.5100    -1.5510 hc         1 UBV       0.023700
     57 H30          5.0100    -3.7570     0.5860 hc         1 UBV       0.056200
     58 H30A         3.3260    -4.1300     0.3100 hc         1 UBV       0.056200
     59 H            5.1600    -0.8300    -1.7710 hc         1 UBV       0.019700
     60 HA           6.1270    -1.8770    -0.7460 hc         1 UBV       0.019700
     61 HB           5.5500    -2.4500    -2.3070 hc         1 UBV       0.019700
     62 H31          3.8940    -4.9000    -2.0360 hc         1 UBV       0.009700
     63 H31A         5.5990    -4.6400    -1.6840 hc         1 UBV       0.009700
     64 H31B         4.6920    -5.8410    -0.7800 hc         1 UBV       0.009700
@<TRIPOS>BOND
     1     1     2 ar  
     2     1     6 ar  
     3     1    33 1   
     4     2     3 ar  
     5     2    34 1   
     6     3     4 ar  
     7     3    35 1   
     8     4     5 ar  
     9     4    36 1   
    10     5     6 ar  
    11     5    37 1   
    12     6     7 1   
    13     7     8 1   
    14     7    38 1   
    15     7    39 1   
    16     8     9 1   
    17     9    10 2   
    18     9    11 1   
    19    11    12 1   
    20    11    40 1   
    21    12    13 1   
    22    12    41 1   
    23    12    42 1   
    24    13    14 1   
    25    13    15 1   
    26    13    16 1   
    27    16    17 1   
    28    16    43 1   
    29    17    18 1   
    30    17    20 1   
    31    17    44 1   
    32    18    19 2   
    33    18    24 1   
    34    20    21 1   
    35    20    45 1   
    36    20    46 1   
    37    21    22 1   
    38    21    23 1   
    39    21    47 1   
    40    22    48 1   
    41    22    49 1   
    42    22    50 1   
    43    23    51 1   
    44    23    52 1   
    45    23    53 1   
    46    24    25 1   
    47    24    54 1   
    48    25    26 1   
    49    25    28 1   
    50    25    55 1   
    51    26    27 1   
    52    26    32 1   
    53    28    29 1   
    54    28    30 1   
    55    28    56 1   
    56    29    31 1   
    57    29    57 1   
    58    29    58 1   
    59    30    59 1   
    60    30    60 1   
    61    30    61 1   
    62    31    62 1   
    63    31    63 1   
    64    31    64 1   
@<TRIPOS>SUBSTRUCTURE
     1 UBV         1 TEMP              0 ****  ****    0 ROOT
