@<TRIPOS>MOLECULE
UBW
   61    61     1     0     0
SMALL
No Charge or Current Charge


@<TRIPOS>ATOM
      1 C3           7.9830     1.3700     0.6770 ca         1 UBW      -0.085500
      2 C2           9.2320     0.8200     1.0110 ca         1 UBW      -0.123000
      3 C1           9.7570    -0.2450     0.2590 ca         1 UBW      -0.117000
      4 C6           9.0300    -0.7590    -0.8280 ca         1 UBW      -0.123000
      5 C5           7.7800    -0.2100    -1.1630 ca         1 UBW      -0.085500
      6 C4           7.2500     0.8600    -0.4130 ca         1 UBW      -0.076300
      7 C7           5.8970     1.4580    -0.7770 c3         1 UBW       0.230900
      8 O8           4.8760     0.7540    -0.0500 os         1 UBW      -0.472100
      9 C9           3.5870     1.1450    -0.2410 c          1 UBW       0.627100
     10 O21          3.2150     2.0500    -0.9710 o          1 UBW      -0.562000
     11 N10          2.7700     0.3690     0.5420 ns         1 UBW      -0.445900
     12 C11          1.2820     0.4530     0.5790 c3         1 UBW      -0.245000
     13 P12          0.3590    -0.5600    -0.6730 p5         1 UBW       1.346300
     14 O22          0.4290    -0.0330    -2.0650 o          1 UBW      -0.830000
     15 O23          0.6870    -2.0050    -0.5390 o          1 UBW      -0.830000
     16 N13         -1.1610    -0.3220    -0.0970 n7         1 UBW      -0.952500
     17 C14         -2.4240    -0.7910    -0.7510 c3         1 UBW       0.155500
     18 C15         -3.7010    -0.1820    -0.0620 c          1 UBW       0.603100
     19 O28         -4.0280    -0.4480     1.0920 o          1 UBW      -0.640100
     20 C24         -2.5000    -2.3470    -0.8060 c3         1 UBW      -0.095400
     21 C25         -3.8130    -2.9440    -1.3970 c3         1 UBW      -0.073700
     22 C26         -4.0740    -2.4880    -2.8530 c3         1 UBW      -0.074600
     23 C27         -3.8030    -4.4870    -1.3040 c3         1 UBW      -0.074600
     24 N16         -4.4400     0.6820    -0.8500 ns         1 UBW      -0.470900
     25 C17         -5.6730     1.3950    -0.4310 c3         1 UBW      -0.026300
     26 C29         -5.3770     2.8410     0.0470 c3         1 UBW      -0.074400
     27 C30         -4.4670     2.9330     1.2940 c3         1 UBW      -0.082400
     28 C31         -4.2590     4.3790     1.7830 c3         1 UBW      -0.084100
     29 C18         -6.7270     1.3830    -1.5850 c          1 UBW       0.720000
     30 O19         -6.3760     1.7390    -2.7030 o          1 UBW      -0.736500
     31 O20         -7.8410     0.9380    -1.3460 o          1 UBW      -0.736500
     32 H3           7.5820     2.1930     1.2660 ha         1 UBW       0.118500
     33 H2           9.7940     1.2180     1.8530 ha         1 UBW       0.102500
     34 H1          10.7230    -0.6710     0.5180 ha         1 UBW       0.097000
     35 H6           9.4340    -1.5850    -1.4100 ha         1 UBW       0.102500
     36 H5           7.2220    -0.6150    -2.0040 ha         1 UBW       0.118500
     37 H7           5.8890     2.5260    -0.5240 h1         1 UBW       0.048700
     38 H7A          5.7350     1.3670    -1.8600 h1         1 UBW       0.048700
     39 HN10         3.2430    -0.3470     1.0820 hn         1 UBW       0.325500
     40 H11          0.9370     0.1270     1.5670 h1         1 UBW       0.061200
     41 H11A         0.9700     1.4930     0.4310 h1         1 UBW       0.061200
     42 HN13        -1.0860    -0.7910     0.8030 hn         1 UBW       0.434000
     43 H14         -2.4350    -0.4230    -1.7860 h1         1 UBW       0.073700
     44 H24         -1.6640    -2.7270    -1.4040 hc         1 UBW       0.043200
     45 H24A        -2.3650    -2.7390     0.2090 hc         1 UBW       0.043200
     46 H25         -4.6580    -2.6000    -0.7860 hc         1 UBW       0.106700
     47 H26         -4.9860    -2.9550    -3.2460 hc         1 UBW       0.018200
     48 H26A        -4.2100    -1.4020    -2.9130 hc         1 UBW       0.018200
     49 H26B        -3.2390    -2.7680    -3.5060 hc         1 UBW       0.018200
     50 H27         -3.6730    -4.8120    -0.2640 hc         1 UBW       0.018200
     51 H27A        -4.7480    -4.9040    -1.6710 hc         1 UBW       0.018200
     52 H27B        -2.9860    -4.9100    -1.9010 hc         1 UBW       0.018200
     53 HN16        -4.1040     0.8420    -1.7930 hn         1 UBW       0.293500
     54 H17         -6.1220     0.8450     0.4060 h1         1 UBW       0.053700
     55 H29         -4.9210     3.4070    -0.7750 hc         1 UBW       0.038700
     56 H29A        -6.3320     3.3310     0.2740 hc         1 UBW       0.038700
     57 H30         -4.9030     2.3400     2.1070 hc         1 UBW       0.039200
     58 H30A        -3.4860     2.4970     1.0690 hc         1 UBW       0.039200
     59 H31         -3.7930     4.9900     1.0010 hc         1 UBW       0.014033
     60 H31A        -5.2170     4.8370     2.0570 hc         1 UBW       0.014033
     61 H31B        -3.6080     4.3940     2.6650 hc         1 UBW       0.014033
@<TRIPOS>BOND
     1     1     2 ar  
     2     1     6 ar  
     3     1    32 1   
     4     2     3 ar  
     5     2    33 1   
     6     3     4 ar  
     7     3    34 1   
     8     4     5 ar  
     9     4    35 1   
    10     5     6 ar  
    11     5    36 1   
    12     6     7 1   
    13     7     8 1   
    14     7    37 1   
    15     7    38 1   
    16     8     9 1   
    17     9    10 2   
    18     9    11 1   
    19    11    12 1   
    20    11    39 1   
    21    12    13 1   
    22    12    40 1   
    23    12    41 1   
    24    13    14 1   
    25    13    15 1   
    26    13    16 1   
    27    16    17 1   
    28    16    42 1   
    29    17    18 1   
    30    17    20 1   
    31    17    43 1   
    32    18    19 2   
    33    18    24 1   
    34    20    21 1   
    35    20    44 1   
    36    20    45 1   
    37    21    22 1   
    38    21    23 1   
    39    21    46 1   
    40    22    47 1   
    41    22    48 1   
    42    22    49 1   
    43    23    50 1   
    44    23    51 1   
    45    23    52 1   
    46    24    25 1   
    47    24    53 1   
    48    25    26 1   
    49    25    29 1   
    50    25    54 1   
    51    26    27 1   
    52    26    55 1   
    53    26    56 1   
    54    27    28 1   
    55    27    57 1   
    56    27    58 1   
    57    28    59 1   
    58    28    60 1   
    59    28    61 1   
    60    29    30 1   
    61    29    31 1   
@<TRIPOS>SUBSTRUCTURE
     1 UBW         1 TEMP              0 ****  ****    0 ROOT
