@<TRIPOS>MOLECULE
UBW
   61    61     1     0     0
SMALL
abcg2


@<TRIPOS>ATOM
      1 C3           7.9200     0.6590     0.8520 ca         1 UBW      -0.085500
      2 C2           9.1360    -0.0010     0.7410 ca         1 UBW      -0.123000
      3 C1           9.5330    -0.5260    -0.4830 ca         1 UBW      -0.117000
      4 C6           8.7100    -0.3870    -1.5930 ca         1 UBW      -0.123000
      5 C5           7.4940     0.2720    -1.4770 ca         1 UBW      -0.085500
      6 C4           7.0880     0.8010    -0.2560 ca         1 UBW      -0.076300
      7 C7           5.7600     1.4820    -0.1230 c3         1 UBW       0.230900
      8 O8           4.8410     0.5020     0.3700 os         1 UBW      -0.472100
      9 C9           3.5870     0.9140     0.6150 c          1 UBW       0.627100
     10 O21          3.2030     2.0490     0.4120 o          1 UBW      -0.562000
     11 N10          2.8560    -0.0840     1.1340 ns         1 UBW      -0.445900
     12 C11          1.4210    -0.0060     1.3130 c3         1 UBW      -0.245000
     13 P12          0.5540    -0.9480    -0.0170 p5         1 UBW       1.346300
     14 O22          0.5630    -0.1530    -1.2990 o          1 UBW      -0.830000
     15 O23          1.1410    -2.3420     0.0010 o          1 UBW      -0.830000
     16 N13         -1.0380    -0.9140     0.6110 n7         1 UBW      -0.952500
     17 C14         -2.1770    -0.8680    -0.2850 c3         1 UBW       0.155500
     18 C15         -3.3870    -0.4350     0.5380 c          1 UBW       0.603100
     19 O28         -3.6490    -0.9760     1.6070 o          1 UBW      -0.640100
     20 C24         -2.4630    -2.2100    -0.9720 c3         1 UBW      -0.095400
     21 C25         -3.5970    -2.2010    -1.9980 c3         1 UBW      -0.073700
     22 C26         -3.2600    -1.3280    -3.2050 c3         1 UBW      -0.074600
     23 C27         -3.9050    -3.6270    -2.4460 c3         1 UBW      -0.074600
     24 N16         -4.1080     0.5740     0.0380 ns         1 UBW      -0.470900
     25 C17         -5.3160     1.0570     0.6660 c3         1 UBW      -0.026300
     26 C29         -5.7250     2.3900     0.0400 c3         1 UBW      -0.074400
     27 C30         -4.6770     3.4920     0.1600 c3         1 UBW      -0.082400
     28 C31         -5.1710     4.8180    -0.4050 c3         1 UBW      -0.084100
     29 C18         -6.4990     0.0580     0.5880 c          1 UBW       0.720000
     30 O19         -6.4460    -0.8490    -0.2610 o          1 UBW      -0.736500
     31 O20         -7.4330     0.2940     1.3800 o          1 UBW      -0.736500
     32 H3           7.6170     1.0700     1.8080 ha         1 UBW       0.118500
     33 H2           9.7750    -0.1040     1.6080 ha         1 UBW       0.102500
     34 H1          10.4820    -1.0400    -0.5710 ha         1 UBW       0.097000
     35 H6           9.0150    -0.7920    -2.5490 ha         1 UBW       0.102500
     36 H5           6.8560     0.3790    -2.3470 ha         1 UBW       0.118500
     37 H7           5.8230     2.3230     0.5710 h1         1 UBW       0.048700
     38 H7A          5.4230     1.8650    -1.0890 h1         1 UBW       0.048700
     39 HN10         3.2580    -1.0090     1.1420 hn         1 UBW       0.325500
     40 H11          1.1630    -0.4140     2.2930 h1         1 UBW       0.061200
     41 H11A         1.1160     1.0380     1.3150 h1         1 UBW       0.061200
     42 HN13        -1.1890    -1.5880     1.3530 hn         1 UBW       0.434000
     43 H14         -1.9620    -0.1130    -1.0440 h1         1 UBW       0.073700
     44 H24         -1.5400    -2.5410    -1.4590 hc         1 UBW       0.043200
     45 H24A        -2.6780    -2.9500    -0.1920 hc         1 UBW       0.043200
     46 H25         -4.4990    -1.7970    -1.5260 hc         1 UBW       0.106700
     47 H26         -4.0700    -1.3430    -3.9360 hc         1 UBW       0.018200
     48 H26A        -3.0920    -0.2850    -2.9330 hc         1 UBW       0.018200
     49 H26B        -2.3550    -1.6840    -3.7030 hc         1 UBW       0.018200
     50 H27         -4.1970    -4.2540    -1.6010 hc         1 UBW       0.018200
     51 H27A        -4.7220    -3.6480    -3.1700 hc         1 UBW       0.018200
     52 H27B        -3.0340    -4.0910    -2.9160 hc         1 UBW       0.018200
     53 HN16        -3.8960     0.8900    -0.8940 hn         1 UBW       0.293500
     54 H17         -5.0970     1.2330     1.7240 h1         1 UBW       0.053700
     55 H29         -5.9740     2.2330    -1.0170 hc         1 UBW       0.038700
     56 H29A        -6.6460     2.7150     0.5270 hc         1 UBW       0.038700
     57 H30         -4.4100     3.6210     1.2130 hc         1 UBW       0.039200
     58 H30A        -3.7580     3.1990    -0.3540 hc         1 UBW       0.039200
     59 H31         -5.4280     4.7270    -1.4620 hc         1 UBW       0.014033
     60 H31A        -6.0630     5.1610     0.1220 hc         1 UBW       0.014033
     61 H31B        -4.4130     5.5970    -0.3160 hc         1 UBW       0.014033
@<TRIPOS>BOND
     1     1     2 ar  
     2     1     6 ar  
     3     1    32 1   
     4     2     3 ar  
     5     2    33 1   
     6     3     4 ar  
     7     3    34 1   
     8     4     5 ar  
     9     4    35 1   
    10     5     6 ar  
    11     5    36 1   
    12     6     7 1   
    13     7     8 1   
    14     7    37 1   
    15     7    38 1   
    16     8     9 1   
    17     9    10 2   
    18     9    11 1   
    19    11    12 1   
    20    11    39 1   
    21    12    13 1   
    22    12    40 1   
    23    12    41 1   
    24    13    14 1   
    25    13    15 1   
    26    13    16 1   
    27    16    17 1   
    28    16    42 1   
    29    17    18 1   
    30    17    20 1   
    31    17    43 1   
    32    18    19 2   
    33    18    24 1   
    34    20    21 1   
    35    20    44 1   
    36    20    45 1   
    37    21    22 1   
    38    21    23 1   
    39    21    46 1   
    40    22    47 1   
    41    22    48 1   
    42    22    49 1   
    43    23    50 1   
    44    23    51 1   
    45    23    52 1   
    46    24    25 1   
    47    24    53 1   
    48    25    26 1   
    49    25    29 1   
    50    25    54 1   
    51    26    27 1   
    52    26    55 1   
    53    26    56 1   
    54    27    28 1   
    55    27    57 1   
    56    27    58 1   
    57    28    59 1   
    58    28    60 1   
    59    28    61 1   
    60    29    30 1   
    61    29    31 1   
@<TRIPOS>SUBSTRUCTURE
     1 UBW         1 TEMP              0 ****  ****    0 ROOT
