@<TRIPOS>MOLECULE
UBX
   50    50     1     0     0
SMALL
bcc


@<TRIPOS>ATOM
      1 C3          -6.2020    -0.0480     0.8190 ca         1 UBX      -0.104000
      2 C2          -7.4230     0.4050     0.3390 ca         1 UBX      -0.139500
      3 C1          -7.8250     0.0880    -0.9530 ca         1 UBX      -0.131000
      4 C6          -7.0030    -0.6830    -1.7610 ca         1 UBX      -0.139500
      5 C5          -5.7800    -1.1330    -1.2790 ca         1 UBX      -0.104000
      6 C4          -5.3700    -0.8230     0.0130 ca         1 UBX      -0.080300
      7 C7          -4.0460    -1.2990     0.5300 c3         1 UBX       0.208700
      8 O8          -3.1660    -0.1730     0.5320 os         1 UBX      -0.446900
      9 C9          -1.9160    -0.3810     0.9780 c          1 UBX       0.748100
     10 O19         -1.5030    -1.4700     1.3270 o          1 UBX      -0.611000
     11 N10         -1.2260     0.7690     1.0060 ns         1 UBX      -0.515900
     12 C11          0.2060     0.8300     1.2140 c3         1 UBX      -0.089200
     13 P12          1.0580     1.2190    -0.3740 p5         1 UBX       1.190500
     14 O21          0.5710     2.5860    -0.8000 o          1 UBX      -0.828500
     15 O20          0.9160     0.0300    -1.2910 o          1 UBX      -0.828500
     16 N13          2.6930     1.3510     0.1090 n7         1 UBX      -0.903300
     17 C14          3.6560     0.3630    -0.3130 c3         1 UBX       0.184500
     18 C15          3.3240    -0.9910     0.3070 c          1 UBX       0.672100
     19 N16          3.4980    -2.0430    -0.5040 ns         1 UBX      -0.564900
     20 C17          3.2570    -3.3980    -0.0740 c3         1 UBX       0.101300
     21 C22          5.0700     0.7420     0.1400 c3         1 UBX      -0.080400
     22 O23          3.0040    -1.1120     1.4820 o          1 UBX      -0.611100
     23 C27          5.6010     2.0750    -0.3970 c3         1 UBX      -0.061700
     24 C28          7.0370     2.2770     0.0780 c3         1 UBX      -0.087100
     25 C29          5.5180     2.1640    -1.9170 c3         1 UBX      -0.087100
     26 H3          -5.8990     0.1970     1.8300 ha         1 UBX       0.135500
     27 H2          -8.0620     1.0050     0.9750 ha         1 UBX       0.122500
     28 H1          -8.7790     0.4400    -1.3250 ha         1 UBX       0.119000
     29 H6          -7.3100    -0.9360    -2.7680 ha         1 UBX       0.122500
     30 H5          -5.1410    -1.7370    -1.9130 ha         1 UBX       0.135500
     31 H7          -4.1480    -1.7000     1.5410 h1         1 UBX       0.048700
     32 H7A         -3.6500    -2.0930    -0.1070 h1         1 UBX       0.048700
     33 HN10        -1.6630     1.5900     0.6160 hn         1 UBX       0.323500
     34 H11          0.4320     1.5930     1.9640 h1         1 UBX       0.068700
     35 H11A         0.5520    -0.1230     1.6060 h1         1 UBX       0.068700
     36 HN13         3.0440     2.2960     0.0620 hn         1 UBX       0.385800
     37 H14          3.6740     0.2410    -1.4050 h1         1 UBX       0.025700
     38 H17          3.8780    -3.6610     0.7810 h1         1 UBX       0.028700
     39 H17A         2.2130    -3.5620     0.2000 h1         1 UBX       0.028700
     40 H22          5.0990     0.7600     1.2340 hc         1 UBX       0.040700
     41 H22A         5.7520    -0.0530    -0.1820 hc         1 UBX       0.040700
     42 H27          5.0060     2.8930     0.0270 hc         1 UBX       0.053700
     43 H28          7.6970     1.5120    -0.3390 hc         1 UBX       0.027533
     44 H28A         7.4220     3.2510    -0.2310 hc         1 UBX       0.027533
     45 H28B         7.1120     2.2220     1.1650 hc         1 UBX       0.027533
     46 H29          6.0520     1.3340    -2.3860 hc         1 UBX       0.027533
     47 H29A         4.4870     2.1390    -2.2740 hc         1 UBX       0.027533
     48 H29B         5.9650     3.0920    -2.2770 hc         1 UBX       0.027533
     49 H25          3.6360    -1.8760    -1.4860 hn         1 UBX       0.315500
     50 H26          3.5060    -4.0690    -0.8920 h1         1 UBX       0.028700
@<TRIPOS>BOND
     1     1     2 ar  
     2     1     6 ar  
     3     1    26 1   
     4     2     3 ar  
     5     2    27 1   
     6     3     4 ar  
     7     3    28 1   
     8     4     5 ar  
     9     4    29 1   
    10     5     6 ar  
    11     5    30 1   
    12     6     7 1   
    13     7     8 1   
    14     7    31 1   
    15     7    32 1   
    16     8     9 1   
    17     9    10 2   
    18     9    11 1   
    19    11    12 1   
    20    11    33 1   
    21    12    13 1   
    22    12    34 1   
    23    12    35 1   
    24    13    14 1   
    25    13    15 1   
    26    13    16 1   
    27    16    17 1   
    28    16    36 1   
    29    17    18 1   
    30    17    21 1   
    31    17    37 1   
    32    18    19 1   
    33    18    22 2   
    34    19    20 1   
    35    19    49 1   
    36    20    38 1   
    37    20    39 1   
    38    20    50 1   
    39    21    23 1   
    40    21    40 1   
    41    21    41 1   
    42    23    24 1   
    43    23    25 1   
    44    23    42 1   
    45    24    43 1   
    46    24    44 1   
    47    24    45 1   
    48    25    46 1   
    49    25    47 1   
    50    25    48 1   
@<TRIPOS>SUBSTRUCTURE
     1 UBX         1 TEMP              0 ****  ****    0 ROOT
