@<TRIPOS>MOLECULE
UBX
   50    50     1     0     0
SMALL
No Charge or Current Charge


@<TRIPOS>ATOM
      1 C3          -6.1330    -1.3380     0.5140 ca         1 UBX      -0.086000
      2 C2          -7.3990    -0.9400     0.9770 ca         1 UBX      -0.121500
      3 C1          -8.0670     0.1340     0.3630 ca         1 UBX      -0.113000
      4 C6          -7.4670     0.8100    -0.7130 ca         1 UBX      -0.121500
      5 C5          -6.2010     0.4130    -1.1760 ca         1 UBX      -0.086000
      6 C4          -5.5270    -0.6650    -0.5660 ca         1 UBX      -0.080300
      7 C7          -4.1550    -1.0990    -1.0670 c3         1 UBX       0.231900
      8 O8          -3.1520    -0.4440    -0.2720 os         1 UBX      -0.470100
      9 C9          -1.8500    -0.7220    -0.5510 c          1 UBX       0.632100
     10 O19         -1.4520    -1.4910    -1.4120 o          1 UBX      -0.562000
     11 N10         -1.0520    -0.0210     0.3160 ns         1 UBX      -0.448900
     12 C11          0.4380    -0.0390     0.3150 c3         1 UBX      -0.247000
     13 P12          1.2930     0.7740    -1.1220 p5         1 UBX       1.348300
     14 O21          0.5740     1.9700    -1.6400 o          1 UBX      -0.828500
     15 O20          1.7130    -0.1820    -2.1800 o          1 UBX      -0.828500
     16 N13          2.6730     1.3340    -0.4380 n7         1 UBX      -0.958500
     17 C14          3.7700     0.4540     0.0690 c3         1 UBX       0.184500
     18 C15          3.4000    -0.4600     1.2990 c          1 UBX       0.605100
     19 N16          3.3290    -1.8120     1.0240 ns         1 UBX      -0.497900
     20 C17          2.9940    -2.8380     2.0120 c3         1 UBX       0.101300
     21 C22          5.0210     1.3190     0.3950 c3         1 UBX      -0.080400
     22 O23          3.1990    -0.0290     2.4300 o          1 UBX      -0.611100
     23 C27          5.6390     2.1150    -0.7920 c3         1 UBX      -0.061700
     24 C28          6.8100     3.0010    -0.3050 c3         1 UBX      -0.087100
     25 C29          6.0940     1.2040    -1.9580 c3         1 UBX      -0.087100
     26 H3          -5.6200    -2.1690     0.9960 ha         1 UBX       0.117500
     27 H2          -7.8620    -1.4630     1.8110 ha         1 UBX       0.104500
     28 H1          -9.0470     0.4420     0.7210 ha         1 UBX       0.101000
     29 H6          -7.9830     1.6430    -1.1880 ha         1 UBX       0.104500
     30 H5          -5.7420     0.9430    -2.0090 ha         1 UBX       0.117500
     31 H7          -4.0660    -2.1900    -0.9840 h1         1 UBX       0.048700
     32 H7A         -4.0470    -0.8310    -2.1260 h1         1 UBX       0.048700
     33 HN10        -1.5450     0.5810     0.9660 hn         1 UBX       0.323500
     34 H11          0.7900     0.4740     1.2170 h1         1 UBX       0.068700
     35 H11A         0.7820    -1.0780     0.3390 h1         1 UBX       0.068700
     36 HN13         3.0150     1.8280    -1.2560 hn         1 UBX       0.441000
     37 H14          4.0610    -0.2360    -0.7330 h1         1 UBX       0.025700
     38 H17          3.7320    -2.8230     2.8240 h1         1 UBX       0.028700
     39 H17A         1.9940    -2.6420     2.4200 h1         1 UBX       0.028700
     40 H22          4.7560     2.0230     1.1950 hc         1 UBX       0.040700
     41 H22A         5.7950     0.6610     0.8120 hc         1 UBX       0.040700
     42 H27          4.8740     2.7970    -1.1850 hc         1 UBX       0.053700
     43 H28          7.6250     2.3860     0.0960 hc         1 UBX       0.027533
     44 H28A         7.2080     3.6050    -1.1290 hc         1 UBX       0.027533
     45 H28B         6.4770     3.6870     0.4840 hc         1 UBX       0.027533
     46 H29          6.8150     0.4540    -1.6090 hc         1 UBX       0.027533
     47 H29A         5.2430     0.6830    -2.4110 hc         1 UBX       0.027533
     48 H29B         6.5730     1.7960    -2.7470 hc         1 UBX       0.027533
     49 H25          3.5040    -2.0990     0.0680 hn         1 UBX       0.315500
     50 H26          3.0020    -3.8240     1.5310 h1         1 UBX       0.028700
@<TRIPOS>BOND
     1     1     2 ar  
     2     1     6 ar  
     3     1    26 1   
     4     2     3 ar  
     5     2    27 1   
     6     3     4 ar  
     7     3    28 1   
     8     4     5 ar  
     9     4    29 1   
    10     5     6 ar  
    11     5    30 1   
    12     6     7 1   
    13     7     8 1   
    14     7    31 1   
    15     7    32 1   
    16     8     9 1   
    17     9    10 2   
    18     9    11 1   
    19    11    12 1   
    20    11    33 1   
    21    12    13 1   
    22    12    34 1   
    23    12    35 1   
    24    13    14 1   
    25    13    15 1   
    26    13    16 1   
    27    16    17 1   
    28    16    36 1   
    29    17    18 1   
    30    17    21 1   
    31    17    37 1   
    32    18    19 1   
    33    18    22 2   
    34    19    20 1   
    35    19    49 1   
    36    20    38 1   
    37    20    39 1   
    38    20    50 1   
    39    21    23 1   
    40    21    40 1   
    41    21    41 1   
    42    23    24 1   
    43    23    25 1   
    44    23    42 1   
    45    24    43 1   
    46    24    44 1   
    47    24    45 1   
    48    25    46 1   
    49    25    47 1   
    50    25    48 1   
@<TRIPOS>SUBSTRUCTURE
     1 UBX         1 TEMP              0 ****  ****    0 ROOT
