@<TRIPOS>MOLECULE
UBY
   55    55     1     0     0
SMALL
bcc


@<TRIPOS>ATOM
      1 C3          -7.5690    -0.8120     0.0950 ca         1 UBY      -0.103000
      2 C2          -8.7100    -0.0250     0.0180 ca         1 UBY      -0.142000
      3 C1          -8.7630     1.0360    -0.8770 ca         1 UBY      -0.136000
      4 C6          -7.6710     1.3050    -1.6940 ca         1 UBY      -0.142000
      5 C5          -6.5330     0.5150    -1.6140 ca         1 UBY      -0.103000
      6 C4          -6.4720    -0.5510    -0.7210 ca         1 UBY      -0.076300
      7 C7          -5.2300    -1.3840    -0.6190 c3         1 UBY       0.206700
      8 O8          -4.3890    -0.7600     0.3550 os         1 UBY      -0.449900
      9 C9          -3.1580    -1.2720     0.5140 c          1 UBY       0.743100
     10 O21         -2.7310    -2.2050    -0.1360 o          1 UBY      -0.599000
     11 N10         -2.5060    -0.6380     1.5040 ns         1 UBY      -0.511900
     12 C11         -1.0720    -0.7550     1.6830 c3         1 UBY      -0.090200
     13 P12         -0.2280     0.6500     0.8340 p5         1 UBY       1.180500
     14 O22         -0.7560     1.9090     1.4830 o          1 UBY      -0.828000
     15 O23         -0.3530     0.4670    -0.6580 o          1 UBY      -0.828000
     16 N13          1.4010     0.3490     1.2720 n7         1 UBY      -0.890300
     17 C14          2.4580     0.5980     0.3070 c3         1 UBY       0.154500
     18 C15          3.7430    -0.0260     0.8400 c          1 UBY       0.660100
     19 O24          4.1690     0.2680     1.9540 o          1 UBY      -0.684100
     20 C20          2.6920     2.0900     0.0410 c3         1 UBY      -0.100400
     21 C21          3.7710     2.4320    -0.9880 c3         1 UBY      -0.056700
     22 C22          3.4200     1.9180    -2.3810 c3         1 UBY      -0.082600
     23 C23          3.9890     3.9420    -1.0220 c3         1 UBY      -0.082600
     24 N16          4.3590    -0.8690     0.0110 ns         1 UBY      -0.536900
     25 C17          5.6540    -1.4670     0.2450 c3         1 UBY      -0.036300
     26 C18          6.2360    -1.9510    -1.1060 c          1 UBY       0.923600
     27 O32          5.4930    -1.8780    -2.1050 o          1 UBY      -0.841800
     28 C25          5.5830    -2.6220     1.2420 c3         1 UBY      -0.076100
     29 O19          7.3990    -2.3870    -1.0630 o          1 UBY      -0.841800
     30 H3          -7.5320    -1.6400     0.7930 ha         1 UBY       0.138000
     31 H2          -9.5580    -0.2400     0.6550 ha         1 UBY       0.119500
     32 H1          -9.6530     1.6480    -0.9420 ha         1 UBY       0.114000
     33 H6          -7.7080     2.1280    -2.3950 ha         1 UBY       0.119500
     34 H5          -5.6870     0.7260    -2.2580 ha         1 UBY       0.138000
     35 H7          -5.4720    -2.4030    -0.3080 h1         1 UBY       0.049200
     36 H7A         -4.7220    -1.4350    -1.5830 h1         1 UBY       0.049200
     37 HN10        -2.9290     0.2010     1.8710 hn         1 UBY       0.318500
     38 H11         -0.8470    -0.7520     2.7530 h1         1 UBY       0.062200
     39 H11A        -0.7400    -1.7150     1.2920 h1         1 UBY       0.062200
     40 HN13         1.6430     0.7320     2.1790 hn         1 UBY       0.374800
     41 H14          2.1700     0.1070    -0.6240 h1         1 UBY       0.087700
     42 H20          1.7410     2.5200    -0.2900 hc         1 UBY       0.044700
     43 H20A         2.9350     2.5700     0.9950 hc         1 UBY       0.044700
     44 H21          4.7160     1.9690    -0.6800 hc         1 UBY       0.057700
     45 H22          4.1770     2.2160    -3.1090 hc         1 UBY       0.024367
     46 H22A         3.3450     0.8310    -2.4230 hc         1 UBY       0.024367
     47 H22B         2.4620     2.3280    -2.7120 hc         1 UBY       0.024367
     48 H23          4.2790     4.3260    -0.0430 hc         1 UBY       0.024367
     49 H23A         4.7700     4.2150    -1.7330 hc         1 UBY       0.024367
     50 H23B         3.0740     4.4600    -1.3220 hc         1 UBY       0.024367
     51 HN16         3.9920    -1.0280    -0.9160 hn         1 UBY       0.341500
     52 H17          6.3270    -0.7040     0.6490 h1         1 UBY       0.039700
     53 H25          6.5770    -3.0270     1.4240 hc         1 UBY       0.020367
     54 H25A         5.1730    -2.2900     2.1940 hc         1 UBY       0.020367
     55 H25B         4.9520    -3.4280     0.8620 hc         1 UBY       0.020367
@<TRIPOS>BOND
     1     1     2 ar  
     2     1     6 ar  
     3     1    30 1   
     4     2     3 ar  
     5     2    31 1   
     6     3     4 ar  
     7     3    32 1   
     8     4     5 ar  
     9     4    33 1   
    10     5     6 ar  
    11     5    34 1   
    12     6     7 1   
    13     7     8 1   
    14     7    35 1   
    15     7    36 1   
    16     8     9 1   
    17     9    10 2   
    18     9    11 1   
    19    11    12 1   
    20    11    37 1   
    21    12    13 1   
    22    12    38 1   
    23    12    39 1   
    24    13    14 1   
    25    13    15 1   
    26    13    16 1   
    27    16    17 1   
    28    16    40 1   
    29    17    18 1   
    30    17    20 1   
    31    17    41 1   
    32    18    19 2   
    33    18    24 1   
    34    20    21 1   
    35    20    42 1   
    36    20    43 1   
    37    21    22 1   
    38    21    23 1   
    39    21    44 1   
    40    22    45 1   
    41    22    46 1   
    42    22    47 1   
    43    23    48 1   
    44    23    49 1   
    45    23    50 1   
    46    24    25 1   
    47    24    51 1   
    48    25    26 1   
    49    25    28 1   
    50    25    52 1   
    51    26    27 1   
    52    26    29 1   
    53    28    53 1   
    54    28    54 1   
    55    28    55 1   
@<TRIPOS>SUBSTRUCTURE
     1 UBY         1 TEMP              0 ****  ****    0 ROOT
