@<TRIPOS>MOLECULE
UBY
   55    55     1     0     0
SMALL
No Charge or Current Charge


@<TRIPOS>ATOM
      1 C3          -7.8780    -1.0390     0.5160 ca         1 UBY      -0.085000
      2 C2          -9.1240    -0.4270     0.7410 ca         1 UBY      -0.124000
      3 C1          -9.5330     0.6510    -0.0610 ca         1 UBY      -0.118000
      4 C6          -8.6950     1.1180    -1.0880 ca         1 UBY      -0.124000
      5 C5          -7.4490     0.5070    -1.3130 ca         1 UBY      -0.085000
      6 C4          -7.0340    -0.5770    -0.5130 ca         1 UBY      -0.076300
      7 C7          -5.6850    -1.2410    -0.7590 c3         1 UBY       0.229900
      8 O8          -4.6950    -0.5740     0.0410 os         1 UBY      -0.473100
      9 C9          -3.4140    -1.0260    -0.0390 c          1 UBY       0.627100
     10 O21         -3.0270    -1.9580    -0.7260 o          1 UBY      -0.550000
     11 N10         -2.6280    -0.2770     0.7990 ns         1 UBY      -0.444900
     12 C11         -1.1540    -0.4280     0.9590 c3         1 UBY      -0.248000
     13 P12         -0.0860     0.5170    -0.2310 p5         1 UBY       1.338300
     14 O22         -0.3490     1.9780    -0.1390 o          1 UBY      -0.828000
     15 O23         -0.0780    -0.0270    -1.6170 o          1 UBY      -0.828000
     16 N13          1.3720     0.2090     0.4630 n7         1 UBY      -0.945500
     17 C14          2.7040     0.6010    -0.0990 c3         1 UBY       0.154500
     18 C15          3.8900    -0.0600     0.6980 c          1 UBY       0.593100
     19 O24          4.1290     0.1920     1.8770 o          1 UBY      -0.684100
     20 C20          2.8640     2.1510    -0.1670 c3         1 UBY      -0.100400
     21 C21          4.2430     2.6680    -0.6740 c3         1 UBY      -0.056700
     22 C22          4.5720     2.1880    -2.1080 c3         1 UBY      -0.082600
     23 C23          4.3150     4.2100    -0.5870 c3         1 UBY      -0.082600
     24 N16          4.6570    -0.9590    -0.0210 ns         1 UBY      -0.469900
     25 C17          5.8170    -1.7190     0.5030 c3         1 UBY      -0.036300
     26 C18          6.7470    -2.1840    -0.6630 c          1 UBY       0.713000
     27 O32          6.2300    -2.5460    -1.7130 o          1 UBY      -0.736500
     28 C25          5.3640    -2.9130     1.3730 c3         1 UBY      -0.076100
     29 O19          7.9550    -2.0590    -0.5230 o          1 UBY      -0.736500
     30 H3          -7.5670    -1.8730     1.1430 ha         1 UBY       0.120000
     31 H2          -9.7710    -0.7890     1.5370 ha         1 UBY       0.101500
     32 H1         -10.4970     1.1240     0.1130 ha         1 UBY       0.096000
     33 H6          -9.0100     1.9540    -1.7080 ha         1 UBY       0.101500
     34 H5          -6.8050     0.8760    -2.1090 ha         1 UBY       0.120000
     35 H7          -5.7480    -2.3050    -0.4940 h1         1 UBY       0.049200
     36 H7A         -5.4330    -1.1740    -1.8260 h1         1 UBY       0.049200
     37 HN10        -3.1080     0.4680     1.2920 hn         1 UBY       0.318500
     38 H11         -0.8740    -0.0990     1.9660 h1         1 UBY       0.062200
     39 H11A        -0.8810    -1.4840     0.8520 h1         1 UBY       0.062200
     40 HN13         1.2580     0.6870     1.3520 hn         1 UBY       0.430000
     41 H14          2.7760     0.2170    -1.1250 h1         1 UBY       0.087700
     42 H20          2.0920     2.5650    -0.8240 hc         1 UBY       0.044700
     43 H20A         2.6820     2.5640     0.8330 hc         1 UBY       0.044700
     44 H21          5.0250     2.2820    -0.0090 hc         1 UBY       0.057700
     45 H22          5.5310     2.6010    -2.4420 hc         1 UBY       0.024367
     46 H22A         4.6510     1.0960    -2.1550 hc         1 UBY       0.024367
     47 H22B         3.7970     2.5090    -2.8150 hc         1 UBY       0.024367
     48 H23          4.1380     4.5500     0.4410 hc         1 UBY       0.024367
     49 H23A         5.3050     4.5700    -0.8940 hc         1 UBY       0.024367
     50 H23B         3.5640     4.6750    -1.2370 hc         1 UBY       0.024367
     51 HN16         4.3900    -1.1210    -0.9860 hn         1 UBY       0.341500
     52 H17          6.4050    -1.0390     1.1330 h1         1 UBY       0.039700
     53 H25          6.2340    -3.4500     1.7680 hc         1 UBY       0.020367
     54 H25A         4.7610    -2.5730     2.2230 hc         1 UBY       0.020367
     55 H25B         4.7640    -3.6170     0.7840 hc         1 UBY       0.020367
@<TRIPOS>BOND
     1     1     2 ar  
     2     1     6 ar  
     3     1    30 1   
     4     2     3 ar  
     5     2    31 1   
     6     3     4 ar  
     7     3    32 1   
     8     4     5 ar  
     9     4    33 1   
    10     5     6 ar  
    11     5    34 1   
    12     6     7 1   
    13     7     8 1   
    14     7    35 1   
    15     7    36 1   
    16     8     9 1   
    17     9    10 2   
    18     9    11 1   
    19    11    12 1   
    20    11    37 1   
    21    12    13 1   
    22    12    38 1   
    23    12    39 1   
    24    13    14 1   
    25    13    15 1   
    26    13    16 1   
    27    16    17 1   
    28    16    40 1   
    29    17    18 1   
    30    17    20 1   
    31    17    41 1   
    32    18    19 2   
    33    18    24 1   
    34    20    21 1   
    35    20    42 1   
    36    20    43 1   
    37    21    22 1   
    38    21    23 1   
    39    21    44 1   
    40    22    45 1   
    41    22    46 1   
    42    22    47 1   
    43    23    48 1   
    44    23    49 1   
    45    23    50 1   
    46    24    25 1   
    47    24    51 1   
    48    25    26 1   
    49    25    28 1   
    50    25    52 1   
    51    26    27 1   
    52    26    29 1   
    53    28    53 1   
    54    28    54 1   
    55    28    55 1   
@<TRIPOS>SUBSTRUCTURE
     1 UBY         1 TEMP              0 ****  ****    0 ROOT
