@<TRIPOS>MOLECULE
UBZ
   58    58     1     0     0
SMALL
No Charge or Current Charge


@<TRIPOS>ATOM
      1 C3          -7.6580     0.5300    -1.1310 ca         1 UBZ      -0.085000
      2 C2          -8.9000     1.0660    -0.7480 ca         1 UBZ      -0.123500
      3 C1          -9.6630     0.4340     0.2470 ca         1 UBZ      -0.117000
      4 C6          -9.1840    -0.7350     0.8610 ca         1 UBZ      -0.123500
      5 C5          -7.9420    -1.2730     0.4790 ca         1 UBZ      -0.085000
      6 C4          -7.1720    -0.6440    -0.5200 ca         1 UBZ      -0.077300
      7 C7          -5.8280    -1.2280    -0.9360 c3         1 UBZ       0.230900
      8 O8          -4.8050    -0.6560    -0.1040 os         1 UBZ      -0.472100
      9 C9          -3.5230    -1.0550    -0.3220 c          1 UBZ       0.627100
     10 O21         -3.1590    -1.8670    -1.1590 o          1 UBZ      -0.559000
     11 N10         -2.7030    -0.4140     0.5710 ns         1 UBZ      -0.445900
     12 C11         -1.2190    -0.5440     0.6240 c3         1 UBZ      -0.246000
     13 P12         -0.2430     0.5990    -0.4660 p5         1 UBZ       1.340300
     14 O22         -0.3040     0.2680    -1.9170 o          1 UBZ      -0.828500
     15 O23         -0.5320     2.0220    -0.1420 o          1 UBZ      -0.828500
     16 N13          1.2590     0.2360     0.0940 n7         1 UBZ      -0.947500
     17 C14          2.5480     0.7500    -0.4710 c3         1 UBZ       0.151500
     18 C15          3.7930     0.0100     0.1450 c          1 UBZ       0.605100
     19 O24          4.1050     0.1020     1.3290 o          1 UBZ      -0.646100
     20 C20          2.6710     2.2950    -0.3070 c3         1 UBZ      -0.095400
     21 C21          4.0100     2.9260    -0.7910 c3         1 UBZ      -0.072700
     22 C22          4.2840     2.6700    -2.2930 c3         1 UBZ      -0.074100
     23 C23          4.0450     4.4410    -0.4830 c3         1 UBZ      -0.074100
     24 N16          4.5220    -0.7560    -0.7470 ns         1 UBZ      -0.467900
     25 C17          5.7260    -1.5580    -0.4160 c3         1 UBZ      -0.028300
     26 C18          6.8020    -1.4120    -1.5390 c          1 UBZ       0.718000
     27 O32          6.4640    -1.5960    -2.7020 o          1 UBZ      -0.738000
     28 C25          5.3800    -3.0470    -0.1570 c3         1 UBZ      -0.076400
     29 C26          4.4450    -3.2890     1.0470 c3         1 UBZ      -0.086100
     30 O19          7.9220    -1.0360    -1.2220 o          1 UBZ      -0.738000
     31 H3          -7.0710     1.0270    -1.9010 ha         1 UBZ       0.119500
     32 H2          -9.2690     1.9730    -1.2230 ha         1 UBZ       0.102500
     33 H1         -10.6240     0.8500     0.5430 ha         1 UBZ       0.097000
     34 H6          -9.7730    -1.2250     1.6330 ha         1 UBZ       0.102500
     35 H5          -7.5760    -2.1770     0.9610 ha         1 UBZ       0.119500
     36 H7          -5.8540    -2.3200    -0.8260 h1         1 UBZ       0.048200
     37 H7A         -5.6410    -0.9990    -1.9940 h1         1 UBZ       0.048200
     38 HN10        -3.1680     0.2380     1.1930 hn         1 UBZ       0.322500
     39 H11         -0.8870    -0.3620     1.6520 h1         1 UBZ       0.061200
     40 H11A        -0.9310    -1.5650     0.3440 h1         1 UBZ       0.061200
     41 HN13         1.1830     0.5740     1.0500 hn         1 UBZ       0.431000
     42 H14          2.5660     0.5300    -1.5470 h1         1 UBZ       0.073700
     43 H20          1.8570     2.7810    -0.8570 hc         1 UBZ       0.043700
     44 H20A         2.5290     2.5460     0.7510 hc         1 UBZ       0.043700
     45 H21          4.8350     2.4740    -0.2230 hc         1 UBZ       0.107700
     46 H22          5.2150     3.1580    -2.6050 hc         1 UBZ       0.018033
     47 H22A         4.3880     1.5990    -2.5030 hc         1 UBZ       0.018033
     48 H22B         3.4680     3.0650    -2.9110 hc         1 UBZ       0.018033
     49 H23          3.9070     4.6220     0.5900 hc         1 UBZ       0.018033
     50 H23A         5.0090     4.8750    -0.7760 hc         1 UBZ       0.018033
     51 H23B         3.2520     4.9690    -1.0260 hc         1 UBZ       0.018033
     52 HN16         4.1990    -0.7710    -1.7070 hn         1 UBZ       0.293500
     53 H17          6.1730    -1.1480     0.4990 h1         1 UBZ       0.054700
     54 H25          4.9230    -3.4780    -1.0560 hc         1 UBZ       0.037200
     55 H25A         6.3130    -3.5980     0.0150 hc         1 UBZ       0.037200
     56 H26          3.4600    -2.8390     0.8770 hc         1 UBZ       0.016367
     57 H26A         4.3030    -4.3640     1.2080 hc         1 UBZ       0.016367
     58 H26B         4.8720    -2.8600     1.9620 hc         1 UBZ       0.016367
@<TRIPOS>BOND
     1     1     2 ar  
     2     1     6 ar  
     3     1    31 1   
     4     2     3 ar  
     5     2    32 1   
     6     3     4 ar  
     7     3    33 1   
     8     4     5 ar  
     9     4    34 1   
    10     5     6 ar  
    11     5    35 1   
    12     6     7 1   
    13     7     8 1   
    14     7    36 1   
    15     7    37 1   
    16     8     9 1   
    17     9    10 2   
    18     9    11 1   
    19    11    12 1   
    20    11    38 1   
    21    12    13 1   
    22    12    39 1   
    23    12    40 1   
    24    13    14 1   
    25    13    15 1   
    26    13    16 1   
    27    16    17 1   
    28    16    41 1   
    29    17    18 1   
    30    17    20 1   
    31    17    42 1   
    32    18    19 2   
    33    18    24 1   
    34    20    21 1   
    35    20    43 1   
    36    20    44 1   
    37    21    22 1   
    38    21    23 1   
    39    21    45 1   
    40    22    46 1   
    41    22    47 1   
    42    22    48 1   
    43    23    49 1   
    44    23    50 1   
    45    23    51 1   
    46    24    25 1   
    47    24    52 1   
    48    25    26 1   
    49    25    28 1   
    50    25    53 1   
    51    26    27 1   
    52    26    30 1   
    53    28    29 1   
    54    28    54 1   
    55    28    55 1   
    56    29    56 1   
    57    29    57 1   
    58    29    58 1   
@<TRIPOS>SUBSTRUCTURE
     1 UBZ         1 TEMP              0 ****  ****    0 ROOT
