@<TRIPOS>MOLECULE
UBZ
   58    58     1     0     0
SMALL
abcg2


@<TRIPOS>ATOM
      1 C3          -6.9380     0.3490    -1.4240 ca         1 UBZ      -0.085000
      2 C2          -8.0940     1.1130    -1.5020 ca         1 UBZ      -0.123500
      3 C1          -9.1320     0.8960    -0.6050 ca         1 UBZ      -0.117000
      4 C6          -9.0100    -0.0870     0.3680 ca         1 UBZ      -0.123500
      5 C5          -7.8510    -0.8490     0.4430 ca         1 UBZ      -0.085000
      6 C4          -6.8070    -0.6400    -0.4530 ca         1 UBZ      -0.077300
      7 C7          -5.5450    -1.4430    -0.3580 c3         1 UBZ       0.230900
      8 O8          -4.6280    -0.6850     0.4350 os         1 UBZ      -0.472100
      9 C9          -3.3820    -1.1710     0.5530 c          1 UBZ       0.627100
     10 O21         -3.0090    -2.1960     0.0180 o          1 UBZ      -0.559000
     11 N10         -2.6440    -0.3910     1.3600 ns         1 UBZ      -0.445900
     12 C11         -1.2060    -0.5220     1.4760 c3         1 UBZ      -0.246000
     13 P12         -0.3650     0.7470     0.4320 p5         1 UBZ       1.340300
     14 O22         -0.4850     0.3690    -1.0240 o          1 UBZ      -0.828500
     15 O23         -0.8830     2.0900     0.8960 o          1 UBZ      -0.828500
     16 N13          1.2570     0.4740     0.9110 n7         1 UBZ      -0.947500
     17 C14          2.3330     0.7190    -0.0340 c3         1 UBZ       0.151500
     18 C15          3.5900     0.0620     0.5280 c          1 UBZ       0.605100
     19 O24          3.9620     0.2920     1.6740 o          1 UBZ      -0.646100
     20 C20          2.5850     2.2090    -0.2900 c3         1 UBZ      -0.095400
     21 C21          3.6610     2.5360    -1.3270 c3         1 UBZ      -0.072700
     22 C22          3.2750     2.0490    -2.7210 c3         1 UBZ      -0.074100
     23 C23          3.9120     4.0410    -1.3500 c3         1 UBZ      -0.074100
     24 N16          4.2210    -0.7890    -0.2860 ns         1 UBZ      -0.467900
     25 C17          5.4640    -1.4390     0.0610 c3         1 UBZ      -0.028300
     26 C18          6.6860    -0.4850     0.0680 c          1 UBZ       0.718000
     27 O32          6.5700     0.6290    -0.4700 o          1 UBZ      -0.738000
     28 C25          5.7110    -2.6130    -0.8870 c3         1 UBZ      -0.076400
     29 C26          4.6350    -3.6890    -0.8320 c3         1 UBZ      -0.086100
     30 O19          7.7080    -0.9580     0.6060 o          1 UBZ      -0.738000
     31 H3          -6.1340     0.5190    -2.1310 ha         1 UBZ       0.119500
     32 H2          -8.1850     1.8750    -2.2650 ha         1 UBZ       0.102500
     33 H1         -10.0360     1.4880    -0.6670 ha         1 UBZ       0.097000
     34 H6          -9.8170    -0.2640     1.0670 ha         1 UBZ       0.102500
     35 H5          -7.7610    -1.6180     1.2010 ha         1 UBZ       0.119500
     36 H7          -5.7370    -2.4120     0.1080 h1         1 UBZ       0.048200
     37 H7A         -5.1280    -1.6230    -1.3510 h1         1 UBZ       0.048200
     38 HN10        -3.0360     0.4940     1.6420 hn         1 UBZ       0.322500
     39 H11         -0.9230    -0.4010     2.5250 h1         1 UBZ       0.061200
     40 H11A        -0.9120    -1.5280     1.1820 h1         1 UBZ       0.061200
     41 HN13         1.4760     0.8750     1.8150 hn         1 UBZ       0.431000
     42 H14          2.0540     0.2350    -0.9720 h1         1 UBZ       0.073700
     43 H20          1.6360     2.6570    -0.6050 hc         1 UBZ       0.043700
     44 H20A         2.8440     2.6780     0.6650 hc         1 UBZ       0.043700
     45 H21          4.5930     2.0410    -1.0380 hc         1 UBZ       0.107700
     46 H22          4.0370     2.3190    -3.4540 hc         1 UBZ       0.018033
     47 H22A         3.1540     0.9660    -2.7710 hc         1 UBZ       0.018033
     48 H22B         2.3320     2.4990    -3.0420 hc         1 UBZ       0.018033
     49 H23          4.2230     4.4090    -0.3700 hc         1 UBZ       0.018033
     50 H23A         4.6930     4.3030    -2.0670 hc         1 UBZ       0.018033
     51 H23B         3.0070     4.5850    -1.6360 hc         1 UBZ       0.018033
     52 HN16         3.9060    -0.8480    -1.2410 hn         1 UBZ       0.293500
     53 H17          5.3590    -1.8440     1.0730 h1         1 UBZ       0.054700
     54 H25          5.8110    -2.2370    -1.9120 hc         1 UBZ       0.037200
     55 H25A         6.6760    -3.0480    -0.6260 hc         1 UBZ       0.037200
     56 H26          3.6620    -3.3190    -1.1550 hc         1 UBZ       0.016367
     57 H26A         4.8940    -4.5290    -1.4770 hc         1 UBZ       0.016367
     58 H26B         4.5210    -4.0750     0.1830 hc         1 UBZ       0.016367
@<TRIPOS>BOND
     1     1     2 ar  
     2     1     6 ar  
     3     1    31 1   
     4     2     3 ar  
     5     2    32 1   
     6     3     4 ar  
     7     3    33 1   
     8     4     5 ar  
     9     4    34 1   
    10     5     6 ar  
    11     5    35 1   
    12     6     7 1   
    13     7     8 1   
    14     7    36 1   
    15     7    37 1   
    16     8     9 1   
    17     9    10 2   
    18     9    11 1   
    19    11    12 1   
    20    11    38 1   
    21    12    13 1   
    22    12    39 1   
    23    12    40 1   
    24    13    14 1   
    25    13    15 1   
    26    13    16 1   
    27    16    17 1   
    28    16    41 1   
    29    17    18 1   
    30    17    20 1   
    31    17    42 1   
    32    18    19 2   
    33    18    24 1   
    34    20    21 1   
    35    20    43 1   
    36    20    44 1   
    37    21    22 1   
    38    21    23 1   
    39    21    45 1   
    40    22    46 1   
    41    22    47 1   
    42    22    48 1   
    43    23    49 1   
    44    23    50 1   
    45    23    51 1   
    46    24    25 1   
    47    24    52 1   
    48    25    26 1   
    49    25    28 1   
    50    25    53 1   
    51    26    27 1   
    52    26    30 1   
    53    28    29 1   
    54    28    54 1   
    55    28    55 1   
    56    29    56 1   
    57    29    57 1   
    58    29    58 1   
@<TRIPOS>SUBSTRUCTURE
     1 UBZ         1 TEMP              0 ****  ****    0 ROOT
