@<TRIPOS>MOLECULE
UC0
   82    85     1     0     0
SMALL
No Charge or Current Charge


@<TRIPOS>ATOM
      1 CAT         15.9790    -1.8530    -7.0630 c3         1 UC0       0.148900
      2 OAS         15.8070    -0.5870    -6.4010 os         1 UC0      -0.336100
      3 CAL         14.8770    -0.3950    -5.3910 ca         1 UC0       0.098100
      4 CAM         14.0960    -1.4610    -4.8900 ca         1 UC0      -0.170000
      5 CAK         14.7070     0.9060    -4.8600 ca         1 UC0       0.100100
      6 OAQ         15.4850     1.9370    -5.3640 os         1 UC0      -0.338100
      7 CAR         15.3760     3.2910    -4.8880 c3         1 UC0       0.146900
      8 CAP         13.7530     1.1230    -3.8400 ca         1 UC0      -0.157000
      9 CAO         12.9750     0.0570    -3.3590 ca         1 UC0      -0.087000
     10 CAN         13.1380    -1.2390    -3.8810 ca         1 UC0      -0.085300
     11 CAU         12.2680    -2.3860    -3.3690 c3         1 UC0      -0.024100
     12 CAV         11.5260    -3.1430    -4.4970 c3         1 UC0      -0.066400
     13 CAW         10.6670    -2.2200    -5.4050 c3         1 UC0       0.227600
     14 CAX          9.4820    -1.6090    -4.6540 ca         1 UC0      -0.096300
     15 CAZ          9.4490    -0.2230    -4.3980 ca         1 UC0      -0.139000
     16 CBD          8.4180    -2.4140    -4.1980 ca         1 UC0      -0.169000
     17 CBC          7.3420    -1.8430    -3.5010 ca         1 UC0      -0.088000
     18 CBB          7.3180    -0.4610    -3.2480 ca         1 UC0      -0.166000
     19 CBA          8.3800     0.3560    -3.6950 ca         1 UC0       0.192100
     20 OBE          8.4120     1.7230    -3.4870 os         1 UC0      -0.339100
     21 CBF          7.4150     2.4260    -2.7000 c3         1 UC0       0.007600
     22 CBG          7.4930     2.1500    -1.1660 c          1 UC0       0.693000
     23 OBI          6.5690     2.5560    -0.4740 o          1 UC0      -0.719500
     24 OBH          8.4540     1.5490    -0.7030 o          1 UC0      -0.719500
     25 OAY         10.1570    -3.0050    -6.4990 os         1 UC0      -0.458100
     26 C           11.0030    -3.3330    -7.5310 c          1 UC0       0.578100
     27 O           12.1300    -2.8650    -7.6460 o          1 UC0      -0.478000
     28 CA          10.3870    -4.2780    -8.6110 c6         1 UC0       0.040700
     29 CB           9.1000    -5.0170    -8.1390 c6         1 UC0      -0.070400
     30 CBN          9.4360    -6.1470    -7.1490 c6         1 UC0      -0.079400
     31 CBO         10.3800    -7.1470    -7.8370 c6         1 UC0      -0.090400
     32 CBP         11.6580    -6.4690    -8.3900 c6         1 UC0       0.098000
     33 N           11.4170    -5.2210    -9.1840 n          1 UC0      -0.387800
     34 CAC         12.3670    -4.7140   -10.1130 c          1 UC0       0.615100
     35 OAE         12.0990    -3.7060   -10.7590 o          1 UC0      -0.620100
     36 CAB         13.6870    -5.4910   -10.3940 c3         1 UC0      -0.063400
     37 CAA         14.8830    -4.5200   -10.5780 c3         1 UC0      -0.040200
     38 CBR         16.2160    -5.2390   -10.6510 c2         1 UC0      -0.225200
     39 CBS         17.1990    -5.1410    -9.7420 c2         1 UC0      -0.312000
     40 CAD         13.5550    -6.4470   -11.5620 cc         1 UC0      -0.192300
     41 SAF         13.0090    -5.9020   -13.1550 ss         1 UC0       0.310000
     42 CAG         13.1460    -7.5400   -13.7850 cc         1 UC0      -0.045000
     43 ClAJ        12.7670    -7.9440   -15.4310 cl         1 UC0      -0.168000
     44 CAH         13.5760    -8.4190   -12.8270 cd         1 UC0      -0.126000
     45 CAI         13.8070    -7.7990   -11.5680 cd         1 UC0      -0.138000
     46 HAV         16.7460    -1.7720    -7.8430 h1         1 UC0       0.035700
     47 HAW         16.2980    -2.6250    -6.3520 h1         1 UC0       0.035700
     48 HAU         15.0430    -2.1750    -7.5380 h1         1 UC0       0.035700
     49 HAM         14.2190    -2.4660    -5.2800 ha         1 UC0       0.110000
     50 HAR         16.0820     3.9390    -5.4230 h1         1 UC0       0.038700
     51 HAS         14.3640     3.6820    -5.0520 h1         1 UC0       0.038700
     52 HAT         15.6080     3.3480    -3.8170 h1         1 UC0       0.038700
     53 HAP         13.5970     2.1100    -3.4130 ha         1 UC0       0.128000
     54 HAO         12.2380     0.2440    -2.5790 ha         1 UC0       0.147000
     55 HAY         11.5270    -2.0150    -2.6510 hc         1 UC0       0.057700
     56 HAX         12.8910    -3.1000    -2.8170 hc         1 UC0       0.057700
     57 HA0         10.8840    -3.9100    -4.0470 hc         1 UC0       0.045700
     58 HAZ         12.2620    -3.6830    -5.1020 hc         1 UC0       0.045700
     59 HA1         11.2910    -1.4000    -5.7880 h1         1 UC0       0.077700
     60 HA2         10.2600     0.4140    -4.7410 ha         1 UC0       0.126000
     61 HBD          8.4240    -3.4850    -4.3880 ha         1 UC0       0.092000
     62 HBC          6.5240    -2.4730    -3.1550 ha         1 UC0       0.096000
     63 HBB          6.4740    -0.0440    -2.7080 ha         1 UC0       0.141000
     64 HBF          7.5500     3.5070    -2.8290 h1         1 UC0       0.037200
     65 HBG          6.4030     2.1860    -3.0510 h1         1 UC0       0.037200
     66 HA3         10.0610    -3.5870    -9.3990 h1         1 UC0       0.106700
     67 HB2          8.3790    -4.3170    -7.6950 hc         1 UC0       0.058700
     68 HB1          8.5930    -5.4440    -9.0160 hc         1 UC0       0.058700
     69 HBN          9.9040    -5.7420    -6.2410 hc         1 UC0       0.054200
     70 HB3          8.5150    -6.6570    -6.8310 hc         1 UC0       0.054200
     71 HBO         10.6590    -7.9460    -7.1370 hc         1 UC0       0.047200
     72 HB4          9.8490    -7.6350    -8.6650 hc         1 UC0       0.047200
     73 HB5         12.1700    -7.2150    -9.0120 h1         1 UC0       0.059200
     74 HBP         12.3250    -6.2230    -7.5510 h1         1 UC0       0.059200
     75 HAC         13.9200    -6.1030    -9.5180 hc         1 UC0       0.070700
     76 HAA         14.7350    -3.9190   -11.4840 hc         1 UC0       0.066700
     77 HAB         14.8870    -3.8100    -9.7400 hc         1 UC0       0.066700
     78 HBR         16.3420    -5.8720   -11.5330 ha         1 UC0       0.170000
     79 HBS         18.1380    -5.6860    -9.8560 ha         1 UC0       0.166000
     80 HB6         17.1030    -4.5170    -8.8520 ha         1 UC0       0.166000
     81 HAH         13.7250    -9.4780   -13.0110 ha         1 UC0       0.138000
     82 HAI         14.1510    -8.3450   -10.6940 ha         1 UC0       0.131000
@<TRIPOS>BOND
     1     1     2 1   
     2     1    46 1   
     3     1    47 1   
     4     1    48 1   
     5     2     3 1   
     6     3     4 ar  
     7     3     5 ar  
     8     4    10 ar  
     9     4    49 1   
    10     5     6 1   
    11     5     8 ar  
    12     6     7 1   
    13     7    50 1   
    14     7    51 1   
    15     7    52 1   
    16     8     9 ar  
    17     8    53 1   
    18     9    10 ar  
    19     9    54 1   
    20    10    11 1   
    21    11    12 1   
    22    11    55 1   
    23    11    56 1   
    24    12    13 1   
    25    12    57 1   
    26    12    58 1   
    27    13    14 1   
    28    13    25 1   
    29    13    59 1   
    30    14    15 ar  
    31    14    16 ar  
    32    15    19 ar  
    33    15    60 1   
    34    16    17 ar  
    35    16    61 1   
    36    17    18 ar  
    37    17    62 1   
    38    18    19 ar  
    39    18    63 1   
    40    19    20 1   
    41    20    21 1   
    42    21    22 1   
    43    21    64 1   
    44    21    65 1   
    45    22    23 1   
    46    22    24 1   
    47    25    26 1   
    48    26    27 2   
    49    26    28 1   
    50    28    29 1   
    51    28    33 1   
    52    28    66 1   
    53    29    30 1   
    54    29    67 1   
    55    29    68 1   
    56    30    31 1   
    57    30    69 1   
    58    30    70 1   
    59    31    32 1   
    60    31    71 1   
    61    31    72 1   
    62    32    33 1   
    63    32    73 1   
    64    32    74 1   
    65    33    34 1   
    66    34    35 2   
    67    34    36 1   
    68    36    37 1   
    69    36    40 1   
    70    36    75 1   
    71    37    38 1   
    72    37    76 1   
    73    37    77 1   
    74    38    39 2   
    75    38    78 1   
    76    39    79 1   
    77    39    80 1   
    78    40    41 1   
    79    40    45 2   
    80    41    42 1   
    81    42    43 1   
    82    42    44 2   
    83    44    45 1   
    84    44    81 1   
    85    45    82 1   
@<TRIPOS>SUBSTRUCTURE
     1 UC0         1 TEMP              0 ****  ****    0 ROOT
