@<TRIPOS>MOLECULE
UC0
   82    85     1     0     0
SMALL
abcg2


@<TRIPOS>ATOM
      1 CAT         15.5290     1.8840    -8.7490 c3         1 UC0       0.148900
      2 OAS         14.9290     2.6190    -7.6850 os         1 UC0      -0.336100
      3 CAL         14.4970     1.9250    -6.5960 ca         1 UC0       0.098100
      4 CAM         14.6120     0.5520    -6.4440 ca         1 UC0      -0.170000
      5 CAK         13.8950     2.6940    -5.5740 ca         1 UC0       0.100100
      6 OAQ         13.8230     4.0370    -5.7980 os         1 UC0      -0.338100
      7 CAR         13.2260     4.8460    -4.7890 c3         1 UC0       0.146900
      8 CAP         13.4260     2.0540    -4.4370 ca         1 UC0      -0.157000
      9 CAO         13.5430     0.6670    -4.3050 ca         1 UC0      -0.087000
     10 CAN         14.1340    -0.0980    -5.2970 ca         1 UC0      -0.085300
     11 CAU         14.2530    -1.5970    -5.1670 c3         1 UC0      -0.024100
     12 CAV         13.6160    -2.3810    -6.3220 c3         1 UC0      -0.066400
     13 CAW         12.1370    -2.0720    -6.5090 c3         1 UC0       0.227600
     14 CAX         11.2890    -2.4060    -5.3080 ca         1 UC0      -0.096300
     15 CAZ         10.6480    -1.3870    -4.6210 ca         1 UC0      -0.139000
     16 CBD         11.1740    -3.7230    -4.8560 ca         1 UC0      -0.169000
     17 CBC         10.4200    -3.9930    -3.7240 ca         1 UC0      -0.088000
     18 CBB          9.7840    -2.9730    -3.0200 ca         1 UC0      -0.166000
     19 CBA          9.9010    -1.6580    -3.4710 ca         1 UC0       0.192100
     20 OBE          9.3180    -0.5830    -2.8780 os         1 UC0      -0.339100
     21 CBF          8.5800    -0.7790    -1.6740 c3         1 UC0       0.007600
     22 CBG          9.4250    -1.0450    -0.4070 c          1 UC0       0.693000
     23 OBI          8.7450    -1.3800     0.5940 o          1 UC0      -0.719500
     24 OBH         10.6630    -0.8810    -0.4680 o          1 UC0      -0.719500
     25 OAY         11.7200    -2.8830    -7.6500 os         1 UC0      -0.458100
     26 C           10.6840    -2.4750    -8.3810 c          1 UC0       0.578100
     27 O           10.0780    -1.4440    -8.2000 o          1 UC0      -0.478000
     28 CA          10.3910    -3.4490    -9.5280 c6         1 UC0       0.040700
     29 CB           8.9410    -3.3770   -10.0080 c6         1 UC0      -0.070400
     30 CBN          7.9770    -4.0120    -9.0080 c6         1 UC0      -0.079400
     31 CBO          8.4300    -5.4280    -8.6590 c6         1 UC0      -0.090400
     32 CBP          9.8760    -5.4340    -8.1730 c6         1 UC0       0.098000
     33 N           10.7620    -4.8160    -9.1670 n          1 UC0      -0.387800
     34 CAC         11.9550    -5.2910    -9.5940 c          1 UC0       0.615100
     35 OAE         12.6790    -4.6500   -10.3600 o          1 UC0      -0.620100
     36 CAB         12.4630    -6.6180    -9.0390 c3         1 UC0      -0.063400
     37 CAA         13.3670    -6.2480    -7.8230 c3         1 UC0      -0.040200
     38 CBR         13.8210    -7.4440    -7.0510 c2         1 UC0      -0.225200
     39 CBS         13.5190    -7.6650    -5.7760 c2         1 UC0      -0.312000
     40 CAD         13.1680    -7.4540   -10.0610 cc         1 UC0      -0.192300
     41 SAF         14.4350    -6.8460   -11.0820 ss         1 UC0       0.310000
     42 CAG         14.7200    -8.4270   -11.7250 cc         1 UC0      -0.045000
     43 CLAJ        15.9250    -8.6680   -12.9380 cl         1 UC0      -0.168000
     44 CAH         13.8810    -9.3660   -11.2090 cd         1 UC0      -0.126000
     45 CAI         12.9970    -8.7970   -10.2480 cd         1 UC0      -0.138000
     46 HAV         15.7920     2.6190    -9.5060 h1         1 UC0       0.035700
     47 HAW         16.4310     1.3670    -8.4100 h1         1 UC0       0.035700
     48 HAU         14.8300     1.1570    -9.1680 h1         1 UC0       0.035700
     49 HAM         15.0740    -0.0330    -7.2260 ha         1 UC0       0.110000
     50 HAR         13.2730     5.8670    -5.1600 h1         1 UC0       0.038700
     51 HAS         12.1830     4.5640    -4.6230 h1         1 UC0       0.038700
     52 HAT         13.7760     4.7710    -3.8480 h1         1 UC0       0.038700
     53 HAP         12.9590     2.6230    -3.6470 ha         1 UC0       0.128000
     54 HAO         13.1520     0.1880    -3.4160 ha         1 UC0       0.147000
     55 HAY         13.7980    -1.9060    -4.2240 hc         1 UC0       0.057700
     56 HAX         15.3070    -1.8830    -5.1140 hc         1 UC0       0.057700
     57 HA0         13.7360    -3.4510    -6.1400 hc         1 UC0       0.045700
     58 HAZ         14.1280    -2.1550    -7.2600 hc         1 UC0       0.045700
     59 HA1         11.9980    -1.0260    -6.7730 h1         1 UC0       0.077700
     60 HA2         10.7280    -0.3620    -4.9610 ha         1 UC0       0.126000
     61 HBD         11.6700    -4.5270    -5.3830 ha         1 UC0       0.092000
     62 HBC         10.3260    -5.0130    -3.3710 ha         1 UC0       0.096000
     63 HBB          9.2190    -3.2100    -2.1310 ha         1 UC0       0.141000
     64 HBF          8.0380     0.1550    -1.5220 h1         1 UC0       0.037200
     65 HBG          7.8440    -1.5760    -1.7980 h1         1 UC0       0.037200
     66 HA3         11.0570    -3.1410   -10.3350 h1         1 UC0       0.106700
     67 HB2          8.6840    -2.3360   -10.1980 hc         1 UC0       0.058700
     68 HB1          8.8880    -3.9100   -10.9610 hc         1 UC0       0.058700
     69 HBN          7.9400    -3.4060    -8.0970 hc         1 UC0       0.054200
     70 HB3          6.9670    -4.0250    -9.4220 hc         1 UC0       0.054200
     71 HBO          7.8000    -5.8540    -7.8760 hc         1 UC0       0.047200
     72 HB4          8.3460    -6.0740    -9.5370 hc         1 UC0       0.047200
     73 HB5         10.1970    -6.4460    -7.9640 h1         1 UC0       0.059200
     74 HBP          9.9580    -4.8690    -7.2390 h1         1 UC0       0.059200
     75 HAC         11.6490    -7.2350    -8.6700 hc         1 UC0       0.070700
     76 HAA         14.2270    -5.6930    -8.2070 hc         1 UC0       0.066700
     77 HAB         12.8110    -5.5750    -7.1690 hc         1 UC0       0.066700
     78 HBR         14.4290    -8.1650    -7.5910 ha         1 UC0       0.170000
     79 HBS         13.8700    -8.5470    -5.2540 ha         1 UC0       0.166000
     80 HB6         12.9100    -6.9660    -5.2120 ha         1 UC0       0.166000
     81 HAH         13.8890   -10.4060   -11.5000 ha         1 UC0       0.138000
     82 HAI         12.2650    -9.3710    -9.6970 ha         1 UC0       0.131000
@<TRIPOS>BOND
     1     1     2 1   
     2     1    46 1   
     3     1    47 1   
     4     1    48 1   
     5     2     3 1   
     6     3     4 ar  
     7     3     5 ar  
     8     4    10 ar  
     9     4    49 1   
    10     5     6 1   
    11     5     8 ar  
    12     6     7 1   
    13     7    50 1   
    14     7    51 1   
    15     7    52 1   
    16     8     9 ar  
    17     8    53 1   
    18     9    10 ar  
    19     9    54 1   
    20    10    11 1   
    21    11    12 1   
    22    11    55 1   
    23    11    56 1   
    24    12    13 1   
    25    12    57 1   
    26    12    58 1   
    27    13    14 1   
    28    13    25 1   
    29    13    59 1   
    30    14    15 ar  
    31    14    16 ar  
    32    15    19 ar  
    33    15    60 1   
    34    16    17 ar  
    35    16    61 1   
    36    17    18 ar  
    37    17    62 1   
    38    18    19 ar  
    39    18    63 1   
    40    19    20 1   
    41    20    21 1   
    42    21    22 1   
    43    21    64 1   
    44    21    65 1   
    45    22    23 1   
    46    22    24 1   
    47    25    26 1   
    48    26    27 2   
    49    26    28 1   
    50    28    29 1   
    51    28    33 1   
    52    28    66 1   
    53    29    30 1   
    54    29    67 1   
    55    29    68 1   
    56    30    31 1   
    57    30    69 1   
    58    30    70 1   
    59    31    32 1   
    60    31    71 1   
    61    31    72 1   
    62    32    33 1   
    63    32    73 1   
    64    32    74 1   
    65    33    34 1   
    66    34    35 2   
    67    34    36 1   
    68    36    37 1   
    69    36    40 1   
    70    36    75 1   
    71    37    38 1   
    72    37    76 1   
    73    37    77 1   
    74    38    39 2   
    75    38    78 1   
    76    39    79 1   
    77    39    80 1   
    78    40    41 1   
    79    40    45 2   
    80    41    42 1   
    81    42    43 1   
    82    42    44 2   
    83    44    45 1   
    84    44    81 1   
    85    45    82 1   
@<TRIPOS>SUBSTRUCTURE
     1 UC0         1 TEMP              0 ****  ****    0 ROOT
