@<TRIPOS>MOLECULE
UC1
   40    41     1     0     0
SMALL
No Charge or Current Charge


@<TRIPOS>ATOM
      1 C2          -0.2410    -0.3270     0.5810 ca         1 UC1      -0.230000
      2 C4           1.5930     0.0800     2.1360 ca         1 UC1       0.070000
      3 C5           2.4640     0.2670     1.0510 ca         1 UC1      -0.054000
      4 C6           1.9840     0.1630    -0.2650 ca         1 UC1      -0.122000
      5 O7          -1.2680    -0.6800    -6.1400 os         1 UC1      -0.236000
      6 C8          -0.3480     0.0600    -5.4320 cc         1 UC1       0.247300
      7 C9          -0.3940    -0.2810    -4.0950 cd         1 UC1      -0.235600
      8 C10         -1.3980    -1.2870    -3.9960 cd         1 UC1      -0.176000
      9 C11         -1.9040    -1.5020    -5.2450 cc         1 UC1       0.124900
     10 C            0.4270     0.2800    -3.0330 cs         1 UC1       0.444000
     11 S            1.5690     1.4910    -3.2430 s          1 UC1      -0.556400
     12 C1           0.6260    -0.1190    -0.5070 ca         1 UC1       0.083600
     13 C3           0.2340    -0.2230     1.9090 ca         1 UC1       0.172100
     14 Cl           2.2270     0.2190     3.7780 cl         1 UC1      -0.179000
     15 OB          -0.5930    -0.4090     3.0010 os         1 UC1      -0.326100
     16 CC          -1.9960    -0.6810     2.8680 c3         1 UC1       0.206800
     17 CD          -2.5730    -0.7900     4.2630 c2         1 UC1      -0.242200
     18 CE          -2.7990     0.2150     5.1300 c2         1 UC1      -0.071400
     19 CF          -3.3850    -0.0140     6.5110 c3         1 UC1      -0.063900
     20 CG          -2.5040     1.6820     4.8590 c3         1 UC1      -0.063900
     21 H2          -1.2820    -0.5590     0.3790 ha         1 UC1       0.120000
     22 H5           3.5140     0.4860     1.2310 ha         1 UC1       0.135000
     23 H6           2.6830     0.2820    -1.0870 ha         1 UC1       0.146000
     24 H10         -1.7270    -1.8130    -3.1050 ha         1 UC1       0.143000
     25 H11         -2.6700    -2.1700    -5.6170 h4         1 UC1       0.059100
     26 HA1          0.2240     1.0060    -7.2810 hc         1 UC1       0.072700
     27 HA2          0.3140     2.0620    -5.8640 hc         1 UC1       0.072700
     28 HA3          1.5480     0.8070    -6.1250 hc         1 UC1       0.072700
     29 HN          -0.6840    -0.8940    -1.8570 hn         1 UC1       0.319500
     30 HC1         -2.1560    -1.6230     2.3270 h1         1 UC1       0.039200
     31 HC2         -2.5000     0.1230     2.3160 h1         1 UC1       0.039200
     32 HD          -2.8130    -1.8160     4.5450 ha         1 UC1       0.181000
     33 HF1         -4.3290     0.5310     6.6350 hc         1 UC1       0.044200
     34 HF2         -3.5920    -1.0750     6.6950 hc         1 UC1       0.044200
     35 HF3         -2.6960     0.3270     7.2940 hc         1 UC1       0.044200
     36 HG1         -3.4190     2.2840     4.9230 hc         1 UC1       0.044200
     37 HG2         -1.7920     2.0800     5.5910 hc         1 UC1       0.044200
     38 HG3         -2.0740     1.8500     3.8660 hc         1 UC1       0.044200
     39 N            0.0960    -0.2530    -1.8110 ns         1 UC1      -0.323100
     40 CA           0.4810     1.0380    -6.2160 c3         1 UC1      -0.136400
@<TRIPOS>BOND
     1     1    12 ar  
     2     1    13 ar  
     3     1    21 1   
     4     2     3 ar  
     5     2    13 ar  
     6     2    14 1   
     7     3     4 ar  
     8     3    22 1   
     9     4    12 ar  
    10     4    23 1   
    11     5     6 1   
    12     5     9 1   
    13     6     7 2   
    14     6    40 1   
    15     7     8 1   
    16     7    10 1   
    17     8     9 2   
    18     8    24 1   
    19     9    25 1   
    20    10    11 2   
    21    10    39 1   
    22    12    39 1   
    23    13    15 1   
    24    15    16 1   
    25    16    17 1   
    26    16    30 1   
    27    16    31 1   
    28    17    18 2   
    29    17    32 1   
    30    18    19 1   
    31    18    20 1   
    32    19    33 1   
    33    19    34 1   
    34    19    35 1   
    35    20    36 1   
    36    20    37 1   
    37    20    38 1   
    38    26    40 1   
    39    27    40 1   
    40    28    40 1   
    41    29    39 1   
@<TRIPOS>SUBSTRUCTURE
     1 UC1         1 TEMP              0 ****  ****    0 ROOT
