@<TRIPOS>MOLECULE
UC1
   40    41     1     0     0
SMALL
abcg2


@<TRIPOS>ATOM
      1 C2          -0.0550    -0.4120     0.6240 ca         1 UC1      -0.230000
      2 C4           1.8570    -0.3840     2.0650 ca         1 UC1       0.070000
      3 C5           2.6910    -0.4530     0.9640 ca         1 UC1      -0.054000
      4 C6           2.1660    -0.5080    -0.3170 ca         1 UC1      -0.122000
      5 O7          -1.3120    -0.4400    -5.9890 os         1 UC1      -0.236000
      6 C8          -0.5470     0.3100    -5.1850 cc         1 UC1       0.247300
      7 C9          -0.2850    -0.3900    -4.0340 cd         1 UC1      -0.235600
      8 C10         -0.9530    -1.6570    -4.1790 cd         1 UC1      -0.176000
      9 C11         -1.5490    -1.6280    -5.3850 cc         1 UC1       0.124900
     10 C            0.4940     0.0510    -2.8860 cs         1 UC1       0.444000
     11 S            1.6530     1.2360    -2.9970 s          1 UC1      -0.556400
     12 C1           0.7880    -0.4800    -0.4820 ca         1 UC1       0.083600
     13 C3           0.4680    -0.3710     1.9130 ca         1 UC1       0.172100
     14 CL           2.5260    -0.3230     3.6570 cl         1 UC1      -0.179000
     15 OB          -0.2630    -0.3090     3.0300 os         1 UC1      -0.326100
     16 CC          -1.6900    -0.3440     2.9290 c3         1 UC1       0.206800
     17 CD          -2.2330    -0.4450     4.3130 c2         1 UC1      -0.242200
     18 CE          -2.9130     0.4930     4.9780 c2         1 UC1      -0.071400
     19 CF          -3.4160     0.2260     6.3650 c3         1 UC1      -0.063900
     20 CG          -3.2430     1.8570     4.4540 c3         1 UC1      -0.063900
     21 H2          -1.1250    -0.3830     0.4640 ha         1 UC1       0.120000
     22 H5           3.7620    -0.4770     1.1060 ha         1 UC1       0.135000
     23 H6           2.8290    -0.5810    -1.1650 ha         1 UC1       0.146000
     24 H10         -0.9540    -2.4900    -3.4950 ha         1 UC1       0.143000
     25 H11         -2.1420    -2.3420    -5.9330 h4         1 UC1       0.059100
     26 HA1         -0.8550     1.9600    -6.4850 hc         1 UC1       0.072700
     27 HA2         -0.2350     2.3930    -4.8810 hc         1 UC1       0.072700
     28 HA3          0.8370     1.6740    -6.0610 hc         1 UC1       0.072700
     29 HN          -0.6670    -1.1400    -1.7560 hn         1 UC1       0.319500
     30 HC1         -1.9950    -1.2230     2.3500 h1         1 UC1       0.039200
     31 HC2         -2.0490     0.5410     2.3980 h1         1 UC1       0.039200
     32 HD          -2.0520    -1.3950     4.8070 ha         1 UC1       0.181000
     33 HF1         -4.5000     0.3480     6.4160 hc         1 UC1       0.044200
     34 HF2         -3.1710    -0.7790     6.7080 hc         1 UC1       0.044200
     35 HF3         -2.9910     0.9410     7.0740 hc         1 UC1       0.044200
     36 HG1         -4.3250     1.9950     4.4070 hc         1 UC1       0.044200
     37 HG2         -2.8630     2.6210     5.1370 hc         1 UC1       0.044200
     38 HG3         -2.8360     2.0630     3.4670 hc         1 UC1       0.044200
     39 N            0.1810    -0.5910    -1.7460 ns         1 UC1      -0.323100
     40 CA          -0.1860     1.6570    -5.6810 c3         1 UC1      -0.136400
@<TRIPOS>BOND
     1     1    12 ar  
     2     1    13 ar  
     3     1    21 1   
     4     2     3 ar  
     5     2    13 ar  
     6     2    14 1   
     7     3     4 ar  
     8     3    22 1   
     9     4    12 ar  
    10     4    23 1   
    11     5     6 1   
    12     5     9 1   
    13     6     7 2   
    14     6    40 1   
    15     7     8 1   
    16     7    10 1   
    17     8     9 2   
    18     8    24 1   
    19     9    25 1   
    20    10    11 2   
    21    10    39 1   
    22    12    39 1   
    23    13    15 1   
    24    15    16 1   
    25    16    17 1   
    26    16    30 1   
    27    16    31 1   
    28    17    18 2   
    29    17    32 1   
    30    18    19 1   
    31    18    20 1   
    32    19    33 1   
    33    19    34 1   
    34    19    35 1   
    35    20    36 1   
    36    20    37 1   
    37    20    38 1   
    38    26    40 1   
    39    27    40 1   
    40    28    40 1   
    41    29    39 1   
@<TRIPOS>SUBSTRUCTURE
     1 UC1         1 TEMP              0 ****  ****    0 ROOT
