@<TRIPOS>MOLECULE
UC2
   42    43     1     0     0
SMALL
abcg2


@<TRIPOS>ATOM
      1 O7           1.5310   -37.0830    24.7120 os         1 UC2      -0.253000
      2 C8           1.6620   -36.4980    23.4910 cc         1 UC2       0.232300
      3 C9           0.4730   -36.5940    22.8170 cd         1 UC2      -0.221600
      4 C10         -0.4420   -37.2850    23.6970 cd         1 UC2      -0.151000
      5 C11          0.2520   -37.5700    24.8170 cc         1 UC2       0.130900
      6 CA           2.9680   -35.8680    23.1990 c3         1 UC2      -0.136400
      7 C            0.1740   -36.1120    21.4700 cs         1 UC2       0.448000
      8 S            1.2220   -36.3510    20.1840 s          1 UC2      -0.558400
      9 N           -1.0200   -35.5210    21.2620 ns         1 UC2      -0.322100
     10 C1          -1.9130   -34.9740    22.2120 ca         1 UC2       0.034600
     11 C2          -1.4510   -34.3620    23.3660 ca         1 UC2      -0.085000
     12 C3          -2.3330   -33.8430    24.3170 ca         1 UC2      -0.101900
     13 C4          -3.7030   -33.9020    24.0370 ca         1 UC2       0.126000
     14 C5          -4.1740   -34.4690    22.8600 ca         1 UC2      -0.088000
     15 C6          -3.2830   -35.0140    21.9490 ca         1 UC2      -0.117000
     16 CL          -4.8720   -33.2790    25.1790 cl         1 UC2      -0.196000
     17 CB          -1.8050   -33.2660    25.5550 ce         1 UC2       0.405800
     18 NC          -0.6260   -33.5810    25.9260 n2         1 UC2      -0.315700
     19 OD          -0.2390   -32.9390    27.0790 os         1 UC2      -0.325000
     20 CE           1.0810   -33.3960    27.5330 c3         1 UC2       0.190000
     21 CF           1.3310   -32.5440    28.7700 c3         1 UC2      -0.100433
     22 CG           2.1210   -33.1220    26.4520 c3         1 UC2      -0.100433
     23 CH           1.0090   -34.8770    27.8840 c3         1 UC2      -0.100433
     24 H10         -1.4670   -37.5410    23.4910 ha         1 UC2       0.149000
     25 H11          0.0140   -38.0820    25.7320 h4         1 UC2       0.058100
     26 HA1          2.8900   -35.2290    22.3230 hc         1 UC2       0.068700
     27 HA2          3.2960   -35.2740    24.0550 hc         1 UC2       0.068700
     28 HA3          3.7320   -36.6250    23.0000 hc         1 UC2       0.068700
     29 HN          -1.2620   -35.3760    20.2900 hn         1 UC2       0.343500
     30 H2          -0.3920   -34.2760    23.5510 ha         1 UC2       0.147000
     31 H5          -5.2370   -34.5000    22.6670 ha         1 UC2       0.137000
     32 H6          -3.6480   -35.4740    21.0400 ha         1 UC2       0.128000
     33 HB          -2.4210   -32.5900    26.1410 h4         1 UC2       0.022800
     34 HF1          2.2980   -32.8030    29.2010 hc         1 UC2       0.045922
     35 HF2          1.3390   -31.4840    28.5110 hc         1 UC2       0.045922
     36 HF3          0.5580   -32.7190    29.5200 hc         1 UC2       0.045922
     37 HG1          3.1120   -33.3850    26.8250 hc         1 UC2       0.045922
     38 HG2          1.9210   -33.7130    25.5600 hc         1 UC2       0.045922
     39 HG3          2.1220   -32.0640    26.1830 hc         1 UC2       0.045922
     40 HH1          1.9640   -35.2030    28.3000 hc         1 UC2       0.045922
     41 HH2          0.2290   -35.0560    28.6250 hc         1 UC2       0.045922
     42 HH3          0.7980   -35.4750    26.9980 hc         1 UC2       0.045922
@<TRIPOS>BOND
     1     1     2 1   
     2     1     5 1   
     3     2     3 2   
     4     2     6 1   
     5     3     4 1   
     6     3     7 1   
     7     4     5 2   
     8     4    24 1   
     9     5    25 1   
    10     6    26 1   
    11     6    27 1   
    12     6    28 1   
    13     7     8 2   
    14     7     9 1   
    15     9    10 1   
    16     9    29 1   
    17    10    11 ar  
    18    10    15 ar  
    19    11    12 ar  
    20    11    30 1   
    21    12    13 ar  
    22    12    17 1   
    23    13    14 ar  
    24    13    16 1   
    25    14    15 ar  
    26    14    31 1   
    27    15    32 1   
    28    17    18 2   
    29    17    33 1   
    30    18    19 1   
    31    19    20 1   
    32    20    21 1   
    33    20    22 1   
    34    20    23 1   
    35    21    34 1   
    36    21    35 1   
    37    21    36 1   
    38    22    37 1   
    39    22    38 1   
    40    22    39 1   
    41    23    40 1   
    42    23    41 1   
    43    23    42 1   
@<TRIPOS>SUBSTRUCTURE
     1 UC2         1 TEMP              0 ****  ****    0 ROOT
