@<TRIPOS>MOLECULE
UC2
   42    43     1     0     0
SMALL
No Charge or Current Charge


@<TRIPOS>ATOM
      1 O7           1.7270   -37.7600    24.3750 os         1 UC2      -0.253000
      2 C8           1.8190   -37.1620    23.1380 cc         1 UC2       0.232300
      3 C9           0.5720   -36.7440    22.7170 cd         1 UC2      -0.221600
      4 C10         -0.3220   -37.1460    23.7490 cd         1 UC2      -0.151000
      5 C11          0.4050   -37.7470    24.7340 cc         1 UC2       0.130900
      6 CA           3.1940   -37.0410    22.5430 c3         1 UC2      -0.136400
      7 C            0.2810   -36.0800    21.4490 cs         1 UC2       0.448000
      8 S            1.3140   -36.0650    20.1330 s          1 UC2      -0.558400
      9 N           -0.9620   -35.5080    21.3160 ns         1 UC2      -0.322100
     10 C1          -1.8930   -34.9670    22.2340 ca         1 UC2       0.034600
     11 C2          -1.4650   -34.3550    23.4290 ca         1 UC2      -0.085000
     12 C3          -2.3960   -33.8060    24.3430 ca         1 UC2      -0.101900
     13 C4          -3.7720   -33.8590    24.0200 ca         1 UC2       0.126000
     14 C5          -4.1950   -34.4370    22.8110 ca         1 UC2      -0.088000
     15 C6          -3.2600   -34.9850    21.9180 ca         1 UC2      -0.117000
     16 Cl          -5.0030   -33.2110    25.1040 cl         1 UC2      -0.196000
     17 CB          -1.9280   -33.2220    25.6410 ce         1 UC2       0.405800
     18 NC          -0.6900   -33.3230    26.0160 n2         1 UC2      -0.315700
     19 OD          -0.4450   -32.8900    27.3470 os         1 UC2      -0.325000
     20 CE           0.9360   -33.0670    27.7630 c3         1 UC2       0.190000
     21 CF           0.9850   -32.5580    29.2210 c3         1 UC2      -0.100433
     22 CG           1.8560   -32.2050    26.8580 c3         1 UC2      -0.100433
     23 CH           1.2990   -34.5760    27.7040 c3         1 UC2      -0.100433
     24 H10         -1.4010   -37.0370    23.7660 ha         1 UC2       0.149000
     25 H11          0.1250   -38.1970    25.6770 h4         1 UC2       0.058100
     26 HA1          3.4040   -36.0060    22.2510 hc         1 UC2       0.068700
     27 HA2          3.9610   -37.3450    23.2640 hc         1 UC2       0.068700
     28 HA3          3.2940   -37.6800    21.6590 hc         1 UC2       0.068700
     29 HN          -1.1660   -35.2570    20.3560 hn         1 UC2       0.343500
     30 H2          -0.4010   -34.3130    23.6460 ha         1 UC2       0.147000
     31 H5          -5.2550   -34.4650    22.5690 ha         1 UC2       0.137000
     32 H6          -3.6010   -35.4350    20.9880 ha         1 UC2       0.128000
     33 HB          -2.6690   -32.7490    26.2890 h4         1 UC2       0.022800
     34 HF1          1.9980   -32.6500    29.6310 hc         1 UC2       0.045922
     35 HF2          0.6900   -31.5030    29.2760 hc         1 UC2       0.045922
     36 HF3          0.3060   -33.1370    29.8590 hc         1 UC2       0.045922
     37 HG1          2.8810   -32.2010    27.2480 hc         1 UC2       0.045922
     38 HG2          1.8950   -32.5940    25.8340 hc         1 UC2       0.045922
     39 HG3          1.5040   -31.1670    26.8210 hc         1 UC2       0.045922
     40 HH1          2.2800   -34.7520    28.1620 hc         1 UC2       0.045922
     41 HH2          0.5590   -35.1760    28.2470 hc         1 UC2       0.045922
     42 HH3          1.3480   -34.9410    26.6710 hc         1 UC2       0.045922
@<TRIPOS>BOND
     1     1     2 1   
     2     1     5 1   
     3     2     3 2   
     4     2     6 1   
     5     3     4 1   
     6     3     7 1   
     7     4     5 2   
     8     4    24 1   
     9     5    25 1   
    10     6    26 1   
    11     6    27 1   
    12     6    28 1   
    13     7     8 2   
    14     7     9 1   
    15     9    10 1   
    16     9    29 1   
    17    10    11 ar  
    18    10    15 ar  
    19    11    12 ar  
    20    11    30 1   
    21    12    13 ar  
    22    12    17 1   
    23    13    14 ar  
    24    13    16 1   
    25    14    15 ar  
    26    14    31 1   
    27    15    32 1   
    28    17    18 2   
    29    17    33 1   
    30    18    19 1   
    31    19    20 1   
    32    20    21 1   
    33    20    22 1   
    34    20    23 1   
    35    21    34 1   
    36    21    35 1   
    37    21    36 1   
    38    22    37 1   
    39    22    38 1   
    40    22    39 1   
    41    23    40 1   
    42    23    41 1   
    43    23    42 1   
@<TRIPOS>SUBSTRUCTURE
     1 UC2         1 TEMP              0 ****  ****    0 ROOT
