@<TRIPOS>MOLECULE
UC3
   38    38     1     0     0
SMALL
abcg2


@<TRIPOS>ATOM
      1 C            0.0930   -35.4790    20.7390 cs         1 UC3       0.583500
      2 S            0.6400   -35.8580    19.1980 s          1 UC3      -0.645400
      3 N           -0.9800   -34.6740    20.9120 ns         1 UC3      -0.341100
      4 C1          -1.6260   -34.2520    22.0900 ca         1 UC3       0.046600
      5 C2          -0.9880   -34.1050    23.3190 ca         1 UC3      -0.071000
      6 C3          -1.6840   -33.6430    24.4360 ca         1 UC3      -0.100600
      7 C4          -3.0430   -33.3460    24.3190 ca         1 UC3       0.150000
      8 CL4         -4.0160   -32.8720    25.6900 cl         1 UC3      -0.181000
      9 C5          -3.6830   -33.4830    23.0930 ca         1 UC3      -0.091000
     10 C6          -2.9800   -33.9220    21.9870 ca         1 UC3      -0.119000
     11 CA          -0.8880   -33.5160    25.6980 c          1 UC3       0.613700
     12 OB          -1.1150   -32.3700    26.3270 os         1 UC3      -0.441100
     13 OA          -0.0950   -34.3600    26.0580 o          1 UC3      -0.486000
     14 CC          -0.4410   -32.1240    27.6070 c3         1 UC3       0.178300
     15 CD          -0.3140   -30.6200    27.7260 c3         1 UC3      -0.104100
     16 CE          -1.2570   -32.7560    28.7190 c3         1 UC3      -0.104100
     17 OF           0.6080   -35.8980    21.8760 os         1 UC3      -0.422100
     18 CG           1.7580   -36.8080    21.9220 c3         1 UC3       0.195300
     19 CH           2.5080   -36.4470    23.1870 c3         1 UC3      -0.110100
     20 CI           1.2490   -38.2340    21.8980 c3         1 UC3      -0.110100
     21 HN          -1.4350   -34.4170    20.0480 hn         1 UC3       0.357500
     22 H2           0.0590   -34.3280    23.4270 ha         1 UC3       0.153000
     23 H5          -4.7380   -33.2590    23.0110 ha         1 UC3       0.138000
     24 H6          -3.4880   -34.0250    21.0360 ha         1 UC3       0.126000
     25 HC           0.5430   -32.5880    27.5470 h1         1 UC3       0.064700
     26 HD1          0.1980   -30.3720    28.6570 hc         1 UC3       0.049700
     27 HD2          0.2640   -30.2130    26.8950 hc         1 UC3       0.049700
     28 HD3         -1.2990   -30.1490    27.7350 hc         1 UC3       0.049700
     29 HE1         -0.7640   -32.5800    29.6760 hc         1 UC3       0.049700
     30 HE2         -2.2550   -32.3150    28.7560 hc         1 UC3       0.049700
     31 HE3         -1.3510   -33.8320    28.5730 hc         1 UC3       0.049700
     32 HG           2.3620   -36.6000    21.0400 h1         1 UC3       0.087700
     33 HH1          3.3860   -37.0870    23.2780 hc         1 UC3       0.055867
     34 HH2          2.8370   -35.4080    23.1610 hc         1 UC3       0.055867
     35 HH3          1.8790   -36.5970    24.0670 hc         1 UC3       0.055867
     36 HI1          2.0970   -38.9210    21.9310 hc         1 UC3       0.055867
     37 HI2          0.6130   -38.4270    22.7650 hc         1 UC3       0.055867
     38 HI3          0.6820   -38.4300    20.9880 hc         1 UC3       0.055867
@<TRIPOS>BOND
     1     1     2 2   
     2     1     3 1   
     3     1    17 1   
     4     3     4 1   
     5     3    21 1   
     6     4     5 ar  
     7     4    10 ar  
     8     5     6 ar  
     9     5    22 1   
    10     6     7 ar  
    11     6    11 1   
    12     7     8 1   
    13     7     9 ar  
    14     9    10 ar  
    15     9    23 1   
    16    10    24 1   
    17    11    12 1   
    18    11    13 2   
    19    12    14 1   
    20    14    15 1   
    21    14    16 1   
    22    14    25 1   
    23    15    26 1   
    24    15    27 1   
    25    15    28 1   
    26    16    29 1   
    27    16    30 1   
    28    16    31 1   
    29    17    18 1   
    30    18    19 1   
    31    18    20 1   
    32    18    32 1   
    33    19    33 1   
    34    19    34 1   
    35    19    35 1   
    36    20    36 1   
    37    20    37 1   
    38    20    38 1   
@<TRIPOS>SUBSTRUCTURE
     1 UC3         1 TEMP              0 ****  ****    0 ROOT
