@<TRIPOS>MOLECULE
UC3
   38    38     1     0     0
SMALL
No Charge or Current Charge


@<TRIPOS>ATOM
      1 C            0.1610   -35.4800    20.6940 cs         1 UC3       0.583500
      2 S            0.7410   -35.7190    19.1420 s          1 UC3      -0.645400
      3 N           -0.9550   -34.7280    20.9430 ns         1 UC3      -0.341100
      4 C1          -1.6040   -34.2800    22.1230 ca         1 UC3       0.046600
      5 C2          -0.9200   -34.0670    23.3390 ca         1 UC3      -0.071000
      6 C3          -1.6000   -33.6010    24.4860 ca         1 UC3      -0.100600
      7 C4          -2.9910   -33.3600    24.4110 ca         1 UC3       0.150000
      8 Cl4         -3.9420   -32.8700    25.8160 cl         1 UC3      -0.181000
      9 C5          -3.6700   -33.5540    23.1970 ca         1 UC3      -0.091000
     10 C6          -2.9800   -34.0000    22.0570 ca         1 UC3      -0.119000
     11 CA          -0.8170   -33.3920    25.7500 c          1 UC3       0.613700
     12 OB          -1.0720   -32.1900    26.3650 os         1 UC3      -0.441100
     13 OA           0.0010   -34.2070    26.1560 o          1 UC3      -0.486000
     14 CC          -0.4380   -31.8880    27.6210 c3         1 UC3       0.178300
     15 CD          -0.5580   -30.3660    27.8170 c3         1 UC3      -0.104100
     16 CE          -1.1530   -32.6810    28.7380 c3         1 UC3      -0.104100
     17 OF           0.6800   -35.9880    21.8360 os         1 UC3      -0.422100
     18 CG           1.7930   -36.8950    21.8530 c3         1 UC3       0.195300
     19 CH           2.3820   -36.8320    23.2750 c3         1 UC3      -0.110100
     20 CI           1.2770   -38.3060    21.4950 c3         1 UC3      -0.110100
     21 HN          -1.3940   -34.4050    20.0900 hn         1 UC3       0.357500
     22 H2           0.1520   -34.2320    23.4020 ha         1 UC3       0.153000
     23 H5          -4.7390   -33.3660    23.1420 ha         1 UC3       0.138000
     24 H6          -3.5240   -34.1470    21.1270 ha         1 UC3       0.126000
     25 HC           0.6290   -32.1520    27.6010 h1         1 UC3       0.064700
     26 HD1         -0.0950   -30.0630    28.7640 hc         1 UC3       0.049700
     27 HD2         -0.0510   -29.8330    27.0040 hc         1 UC3       0.049700
     28 HD3         -1.6100   -30.0560    27.8320 hc         1 UC3       0.049700
     29 HE1         -0.7490   -32.4050    29.7190 hc         1 UC3       0.049700
     30 HE2         -2.2290   -32.4680    28.7380 hc         1 UC3       0.049700
     31 HE3         -1.0140   -33.7600    28.6110 hc         1 UC3       0.049700
     32 HG           2.5710   -36.5880    21.1400 h1         1 UC3       0.087700
     33 HH1          3.2370   -37.5130    23.3670 hc         1 UC3       0.055867
     34 HH2          2.7290   -35.8170    23.5000 hc         1 UC3       0.055867
     35 HH3          1.6310   -37.1160    24.0220 hc         1 UC3       0.055867
     36 HI1          2.0880   -39.0400    21.5740 hc         1 UC3       0.055867
     37 HI2          0.4730   -38.6100    22.1750 hc         1 UC3       0.055867
     38 HI3          0.8940   -38.3410    20.4690 hc         1 UC3       0.055867
@<TRIPOS>BOND
     1     1     2 2   
     2     1     3 1   
     3     1    17 1   
     4     3     4 1   
     5     3    21 1   
     6     4     5 ar  
     7     4    10 ar  
     8     5     6 ar  
     9     5    22 1   
    10     6     7 ar  
    11     6    11 1   
    12     7     8 1   
    13     7     9 ar  
    14     9    10 ar  
    15     9    23 1   
    16    10    24 1   
    17    11    12 1   
    18    11    13 2   
    19    12    14 1   
    20    14    15 1   
    21    14    16 1   
    22    14    25 1   
    23    15    26 1   
    24    15    27 1   
    25    15    28 1   
    26    16    29 1   
    27    16    30 1   
    28    16    31 1   
    29    17    18 1   
    30    18    19 1   
    31    18    20 1   
    32    18    32 1   
    33    19    33 1   
    34    19    34 1   
    35    19    35 1   
    36    20    36 1   
    37    20    37 1   
    38    20    38 1   
@<TRIPOS>SUBSTRUCTURE
     1 UC3         1 TEMP              0 ****  ****    0 ROOT
