@<TRIPOS>MOLECULE
UC4
   41    42     1     0     0
SMALL
No Charge or Current Charge


@<TRIPOS>ATOM
      1 Cl          -2.4060     0.4490     4.4890 cl         1 UC4      -0.173000
      2 C1          -0.5040     0.0410     2.4890 ca         1 UC4      -0.099600
      3 C2          -1.8600     0.2700     2.8200 ca         1 UC4       0.133000
      4 C3          -2.8170     0.4090     1.8020 ca         1 UC4      -0.090000
      5 C4          -2.4410     0.3190     0.4530 ca         1 UC4      -0.141000
      6 C5          -1.1010     0.0910     0.1000 ca         1 UC4      -0.023000
      7 C6          -0.1360    -0.0390     1.1240 ca         1 UC4      -0.088000
      8 O7           0.3830    -0.7650     4.5780 o          1 UC4      -0.473000
      9 O8           1.7740     0.3770     3.1620 os         1 UC4      -0.445100
     10 C8           2.8940     0.2910     4.0620 c3         1 UC4       0.182300
     11 C9           4.1570     0.5180     3.2120 c3         1 UC4      -0.106100
     12 C10          2.7270     1.3630     5.1620 c3         1 UC4      -0.106100
     13 OA           0.8600    -0.9920    -5.7150 os         1 UC4      -0.341100
     14 CB           0.9690    -1.0180    -4.3390 c2         1 UC4       0.183900
     15 CC           0.2150    -0.2630    -3.4860 ce         1 UC4      -0.211600
     16 S           -1.0440     0.9050    -4.0470 ss         1 UC4      -0.303600
     17 CD          -0.5510     1.0250    -5.8110 c6         1 UC4      -0.000400
     18 CE          -0.2660    -0.3720    -6.3740 c6         1 UC4       0.156600
     19 CG           0.3610    -0.3240    -1.9800 c          1 UC4       0.655300
     20 N           -0.7930     0.0190    -1.2870 ns         1 UC4      -0.143000
     21 H3          -3.8570     0.5930     2.0630 ha         1 UC4       0.132000
     22 H4          -3.1990     0.4300    -0.3200 ha         1 UC4       0.118000
     23 H6           0.9080    -0.2060     0.8780 ha         1 UC4       0.165000
     24 H8           2.9610    -0.7050     4.5210 h1         1 UC4       0.061700
     25 H91          5.0560     0.4660     3.8370 hc         1 UC4       0.047867
     26 H92          4.2390    -0.2510     2.4350 hc         1 UC4       0.047867
     27 H93          4.1300     1.5010     2.7260 hc         1 UC4       0.047867
     28 H101         2.6080     2.3600     4.7200 hc         1 UC4       0.047867
     29 H102         1.8540     1.1550     5.7910 hc         1 UC4       0.047867
     30 H103         3.6090     1.3810     5.8130 hc         1 UC4       0.047867
     31 HD1          0.3500     1.6490    -5.8870 h1         1 UC4       0.089200
     32 HD2         -1.3610     1.5110    -6.3730 h1         1 UC4       0.089200
     33 HE1         -0.0540    -0.3090    -7.4500 h1         1 UC4       0.070700
     34 HE2         -1.1520    -1.0100    -6.2420 h1         1 UC4       0.070700
     35 HF1          2.4630    -2.5320    -4.8120 hc         1 UC4       0.069033
     36 HF2          2.9310    -1.4280    -3.5160 hc         1 UC4       0.069033
     37 HF3          1.7360    -2.7070    -3.2150 hc         1 UC4       0.069033
     38 HN          -1.5610     0.2800    -1.8920 hn         1 UC4       0.162000
     39 C7           0.5510    -0.1130     3.5550 c          1 UC4       0.612700
     40 CF           2.0840    -1.9710    -3.9490 c3         1 UC4      -0.053900
     41 OG           1.3800    -0.7170    -1.4230 o          1 UC4      -0.577100
@<TRIPOS>BOND
     1     1     3 1   
     2     2     3 ar  
     3     2     7 ar  
     4     2    39 1   
     5     3     4 ar  
     6     4     5 ar  
     7     4    21 1   
     8     5     6 ar  
     9     5    22 1   
    10     6     7 ar  
    11     6    20 1   
    12     7    23 1   
    13     8    39 2   
    14     9    10 1   
    15     9    39 1   
    16    10    11 1   
    17    10    12 1   
    18    10    24 1   
    19    11    25 1   
    20    11    26 1   
    21    11    27 1   
    22    12    28 1   
    23    12    29 1   
    24    12    30 1   
    25    13    14 1   
    26    13    18 1   
    27    14    15 2   
    28    14    40 1   
    29    15    16 1   
    30    15    19 1   
    31    16    17 1   
    32    17    18 1   
    33    17    31 1   
    34    17    32 1   
    35    18    33 1   
    36    18    34 1   
    37    19    20 1   
    38    19    41 2   
    39    20    38 1   
    40    35    40 1   
    41    36    40 1   
    42    37    40 1   
@<TRIPOS>SUBSTRUCTURE
     1 UC4         1 TEMP              0 ****  ****    0 ROOT
