@<TRIPOS>MOLECULE
UC4
   41    42     1     0     0
SMALL
abcg2


@<TRIPOS>ATOM
      1 CL          -2.4200     0.4250     4.4260 cl         1 UC4      -0.173000
      2 C1          -0.5600     0.0500     2.4490 ca         1 UC4      -0.099600
      3 C2          -1.8980     0.2250     2.7900 ca         1 UC4       0.133000
      4 C3          -2.8610     0.2950     1.7940 ca         1 UC4      -0.090000
      5 C4          -2.5010     0.1730     0.4680 ca         1 UC4      -0.141000
      6 C5          -1.1660    -0.0060     0.1020 ca         1 UC4      -0.023000
      7 C6          -0.2020    -0.0560     1.1050 ca         1 UC4      -0.088000
      8 O7           0.3500    -0.6380     4.5400 o          1 UC4      -0.473000
      9 O8           1.6480     0.4360     3.0660 os         1 UC4      -0.445100
     10 C8           2.8350     0.3060     3.8860 c3         1 UC4       0.182300
     11 C9           4.0100     0.3660     2.9320 c3         1 UC4      -0.106100
     12 C10          2.8650     1.4110     4.9250 c3         1 UC4      -0.106100
     13 OA           0.9670    -0.9230    -5.5010 os         1 UC4      -0.341100
     14 CB           1.0060    -0.9280    -4.1590 c2         1 UC4       0.183900
     15 CC           0.2070    -0.1790    -3.3710 ce         1 UC4      -0.211600
     16 S           -0.9620     1.0140    -3.9790 ss         1 UC4      -0.303600
     17 CD          -0.3900     1.0890    -5.6880 c6         1 UC4      -0.000400
     18 CE          -0.1050    -0.3040    -6.1940 c6         1 UC4       0.156600
     19 CG           0.3110    -0.2220    -1.8920 c          1 UC4       0.655300
     20 N           -0.8960    -0.1230    -1.2610 ns         1 UC4      -0.143000
     21 H3          -3.9000     0.4460     2.0530 ha         1 UC4       0.132000
     22 H4          -3.2710     0.2250    -0.2920 ha         1 UC4       0.118000
     23 H6           0.8340    -0.2030     0.8510 ha         1 UC4       0.165000
     24 H8           2.8150    -0.6670     4.3800 h1         1 UC4       0.061700
     25 H91          4.9380     0.2530     3.4920 hc         1 UC4       0.047867
     26 H92          3.9630    -0.4340     2.1940 hc         1 UC4       0.047867
     27 H93          4.0490     1.3230     2.4100 hc         1 UC4       0.047867
     28 H101         2.8730     2.3940     4.4520 hc         1 UC4       0.047867
     29 H102         2.0140     1.3560     5.6020 hc         1 UC4       0.047867
     30 H103         3.7710     1.3200     5.5240 hc         1 UC4       0.047867
     31 HD1          0.4940     1.7240    -5.7590 h1         1 UC4       0.089200
     32 HD2         -1.1900     1.5420    -6.2730 h1         1 UC4       0.089200
     33 HE1          0.2050    -0.2700    -7.2370 h1         1 UC4       0.070700
     34 HE2         -1.0010    -0.9260    -6.1220 h1         1 UC4       0.070700
     35 HF1          2.1590    -2.6980    -4.3830 hc         1 UC4       0.069033
     36 HF2          3.0320    -1.3710    -3.6210 hc         1 UC4       0.069033
     37 HF3          1.8490    -2.2840    -2.6980 hc         1 UC4       0.069033
     38 HN          -1.7180    -0.1770    -1.8450 hn         1 UC4       0.162000
     39 C7           0.5100    -0.0900     3.4800 c          1 UC4       0.612700
     40 CF           2.0650    -1.8730    -3.6780 c3         1 UC4      -0.053900
     41 OG           1.3680    -0.3200    -1.2950 o          1 UC4      -0.577100
@<TRIPOS>BOND
     1     1     3 1   
     2     2     3 ar  
     3     2     7 ar  
     4     2    39 1   
     5     3     4 ar  
     6     4     5 ar  
     7     4    21 1   
     8     5     6 ar  
     9     5    22 1   
    10     6     7 ar  
    11     6    20 1   
    12     7    23 1   
    13     8    39 2   
    14     9    10 1   
    15     9    39 1   
    16    10    11 1   
    17    10    12 1   
    18    10    24 1   
    19    11    25 1   
    20    11    26 1   
    21    11    27 1   
    22    12    28 1   
    23    12    29 1   
    24    12    30 1   
    25    13    14 1   
    26    13    18 1   
    27    14    15 2   
    28    14    40 1   
    29    15    16 1   
    30    15    19 1   
    31    16    17 1   
    32    17    18 1   
    33    17    31 1   
    34    17    32 1   
    35    18    33 1   
    36    18    34 1   
    37    19    20 1   
    38    19    41 2   
    39    20    38 1   
    40    35    40 1   
    41    36    40 1   
    42    37    40 1   
@<TRIPOS>SUBSTRUCTURE
     1 UC4         1 TEMP              0 ****  ****    0 ROOT
