@<TRIPOS>MOLECULE
UC5
   37    38     1     0     0
SMALL
No Charge or Current Charge


@<TRIPOS>ATOM
      1 O4           6.8940    -2.5340     0.3840 o          1 UC5      -0.581000
      2 C4           5.9570    -1.7620     0.4750 c          1 UC5       0.599200
      3 C5           5.7620    -0.8390     1.5860 cc         1 UC5      -0.427200
      4 C6           4.6830     0.0110     1.6440 cd         1 UC5       0.024600
      5 N3           4.9880    -1.6830    -0.4690 ns         1 UC5      -0.472500
      6 C2           3.8950    -0.8710    -0.4930 c          1 UC5       0.620000
      7 O2           3.1410    -0.9100    -1.4510 o          1 UC5      -0.521000
      8 N1           3.7420    -0.0040     0.6170 n          1 UC5      -0.307000
      9 C1           2.5530     0.8800     0.7390 c5         1 UC5       0.344700
     10 C9           2.7940     2.1440    -0.1470 c5         1 UC5      -0.155400
     11 C3           1.6280     2.0590    -1.1710 c5         1 UC5       0.123300
     12 O3           1.2170     3.3550    -1.6170 oh         1 UC5      -0.700000
     13 O6           1.3320     0.2720     0.2850 os         1 UC5      -0.394000
     14 C7           0.5540     1.3270    -0.3150 c5         1 UC5       0.160300
     15 C8          -0.6390     0.7520    -1.1360 c3         1 UC5       0.243600
     16 O5          -1.5850     0.0420    -0.3130 os         1 UC5      -0.577400
     17 PA          -2.4070     0.7870     0.8600 p5         1 UC5       1.413400
     18 O1A         -1.5430     0.9850     2.0620 o          1 UC5      -0.856500
     19 O2A         -3.0380     2.0650     0.4150 o          1 UC5      -0.856500
     20 C3A         -3.5620    -0.5060     1.2910 c3         1 UC5      -0.728400
     21 PB          -4.8680    -0.4410     0.0910 p5         1 UC5       1.345500
     22 O1B         -4.3830    -0.2900    -1.3060 o          1 UC5      -0.947167
     23 O2B         -5.5740    -1.7440     0.2370 o          1 UC5      -0.947167
     24 O3B         -5.8180     0.6400     0.4740 o          1 UC5      -0.947167
     25 H5           6.5180    -0.8660     2.3630 ha         1 UC5       0.201000
     26 H6           4.4850     0.7170     2.4480 h4         1 UC5       0.194000
     27 HN3          5.0940    -2.2990    -1.2580 hn         1 UC5       0.332500
     28 H1           2.4550     1.1620     1.7940 h2         1 UC5       0.035700
     29 H2'1         3.7740     2.1580    -0.6390 hc         1 UC5       0.042200
     30 H2'2         2.7310     3.0490     0.4680 hc         1 UC5       0.042200
     31 H3           1.9110     1.4280    -2.0270 h1         1 UC5       0.071700
     32 HO3          1.9930     3.7660    -2.0630 ho         1 UC5       0.478000
     33 H4           0.1810     1.9980     0.4700 h1         1 UC5       0.064700
     34 H5'1        -1.1390     1.5810    -1.6540 h1         1 UC5       0.019700
     35 H5'2        -0.2400     0.0810    -1.9080 h1         1 UC5       0.019700
     36 H3A1        -3.0570    -1.4750     1.2650 hc         1 UC5       0.022200
     37 H3A2        -3.9580    -0.3360     2.2960 hc         1 UC5       0.022200
@<TRIPOS>BOND
     1     1     2 2   
     2     2     3 1   
     3     2     5 1   
     4     3     4 2   
     5     3    25 1   
     6     4     8 1   
     7     4    26 1   
     8     5     6 1   
     9     5    27 1   
    10     6     7 2   
    11     6     8 1   
    12     8     9 1   
    13     9    10 1   
    14     9    13 1   
    15     9    28 1   
    16    10    11 1   
    17    10    29 1   
    18    10    30 1   
    19    11    12 1   
    20    11    14 1   
    21    11    31 1   
    22    12    32 1   
    23    13    14 1   
    24    14    15 1   
    25    14    33 1   
    26    15    16 1   
    27    15    34 1   
    28    15    35 1   
    29    16    17 1   
    30    17    18 1   
    31    17    19 1   
    32    17    20 1   
    33    20    21 1   
    34    20    36 1   
    35    20    37 1   
    36    21    22 1   
    37    21    23 1   
    38    21    24 1   
@<TRIPOS>SUBSTRUCTURE
     1 UC5         1 TEMP              0 ****  ****    0 ROOT
