@<TRIPOS>MOLECULE
UC5
   37    38     1     0     0
SMALL
bcc


@<TRIPOS>ATOM
      1 O4           5.7190    -3.3460    -0.4090 o          1 UC5      -0.656500
      2 C4           5.1280    -2.3420    -0.0590 c          1 UC5       0.741700
      3 C5           5.0960    -1.7950     1.2740 cc         1 UC5      -0.377200
      4 C6           4.3960    -0.6740     1.5110 cd         1 UC5       0.074600
      5 N3           4.3910    -1.6020    -0.9710 ns         1 UC5      -0.606500
      6 C2           3.6680    -0.4580    -0.7500 c          1 UC5       0.829500
      7 O2           3.0550     0.0940    -1.6370 o          1 UC5      -0.596500
      8 N1           3.7070     0.0070     0.5490 n          1 UC5      -0.374000
      9 C1           2.9370     1.1930     0.9260 c5         1 UC5       0.321500
     10 C9           3.2250     2.4710     0.1330 c5         1 UC5      -0.155400
     11 C3           1.9290     2.7590    -0.6260 c5         1 UC5       0.100100
     12 O3           1.5670     4.1170    -0.6740 oh         1 UC5      -0.577800
     13 O6           1.5750     0.9120     0.7940 os         1 UC5      -0.347600
     14 C7           0.8870     1.9970     0.1920 c5         1 UC5       0.137100
     15 C8          -0.2660     1.4740    -0.6300 c3         1 UC5       0.220400
     16 O5          -1.1790     0.8210     0.2110 os         1 UC5      -0.554200
     17 PA          -2.7120     0.4850    -0.4040 p5         1 UC5       1.255600
     18 O1A         -3.4310     1.8070    -0.5330 o          1 UC5      -0.856500
     19 O2A         -2.5120    -0.3430    -1.6480 o          1 UC5      -0.856500
     20 C3A         -3.3210    -0.4790     1.0010 c3         1 UC5      -0.412800
     21 PB          -4.8470    -1.5150     0.6650 p5         1 UC5       1.187700
     22 O1B         -4.3550    -2.7350    -0.1210 o          1 UC5      -0.947167
     23 O2B         -5.3680    -1.8710     2.0660 o          1 UC5      -0.947167
     24 O3B         -5.7890    -0.6000    -0.1250 o          1 UC5      -0.947167
     25 H5           5.6280    -2.2900     2.0720 ha         1 UC5       0.151000
     26 H6           4.3500    -0.2450     2.5020 h4         1 UC5       0.144000
     27 HN3          4.3720    -1.9420    -1.9250 hn         1 UC5       0.332500
     28 H1           3.1910     1.3500     1.9780 h2         1 UC5       0.035700
     29 H2'1         4.1010     2.3930    -0.5080 hc         1 UC5       0.042200
     30 H2'2         3.4060     3.2820     0.8420 hc         1 UC5       0.042200
     31 H3           1.9870     2.3410    -1.6350 h1         1 UC5       0.071700
     32 HO3          2.0790     4.5420    -1.3680 ho         1 UC5       0.379000
     33 H4           0.5010     2.6670     0.9750 h1         1 UC5       0.064700
     34 H5'1        -0.7200     2.3320    -1.1440 h1         1 UC5       0.019700
     35 H5'2         0.1260     0.8040    -1.4060 h1         1 UC5       0.019700
     36 H3A1        -2.5240    -1.1350     1.3630 hc         1 UC5       0.022200
     37 H3A2        -3.5290     0.2230     1.8140 hc         1 UC5       0.022200
@<TRIPOS>BOND
     1     1     2 2   
     2     2     3 1   
     3     2     5 1   
     4     3     4 2   
     5     3    25 1   
     6     4     8 1   
     7     4    26 1   
     8     5     6 1   
     9     5    27 1   
    10     6     7 2   
    11     6     8 1   
    12     8     9 1   
    13     9    10 1   
    14     9    13 1   
    15     9    28 1   
    16    10    11 1   
    17    10    29 1   
    18    10    30 1   
    19    11    12 1   
    20    11    14 1   
    21    11    31 1   
    22    12    32 1   
    23    13    14 1   
    24    14    15 1   
    25    14    33 1   
    26    15    16 1   
    27    15    34 1   
    28    15    35 1   
    29    16    17 1   
    30    17    18 1   
    31    17    19 1   
    32    17    20 1   
    33    20    21 1   
    34    20    36 1   
    35    20    37 1   
    36    21    22 1   
    37    21    23 1   
    38    21    24 1   
@<TRIPOS>SUBSTRUCTURE
     1 UC5         1 TEMP              0 ****  ****    0 ROOT
