@<TRIPOS>MOLECULE
UC6
   21    21     1     0     0
SMALL
No Charge or Current Charge


@<TRIPOS>ATOM
      1 C4          53.0050    12.0170    22.6580 c6         1 UC6       0.047300
      2 C5          54.1560    12.6610    23.4950 c          1 UC6       0.504100
      3 C6          54.8000    13.8880    22.7760 c6         1 UC6       0.060300
      4 C2          53.7000    14.8810    22.3030 c6         1 UC6       0.127300
      5 O2          52.7290    14.1780    21.4830 os         1 UC6      -0.435000
      6 C3          52.0200    13.1060    22.1500 c6         1 UC6       0.153600
      7 O3          53.5660    11.2730    21.5370 oh         1 UC6      -0.697000
      8 O4          54.8460    11.9500    24.2200 o          1 UC6      -0.502100
      9 O5          55.5660    13.4250    21.6290 oh         1 UC6      -0.673000
     10 H7          52.4550    11.3430    23.3330 h1         1 UC6       0.056700
     11 H9          55.4520    14.3860    23.5090 h1         1 UC6       0.093700
     12 H1          53.3670    16.9580    24.8890 ho         1 UC6       0.507000
     13 H4          54.1770    15.6480    21.6740 h1         1 UC6       0.090700
     14 H5          51.4220    13.5040    22.9810 h1         1 UC6       0.066200
     15 H6          51.3140    12.6550    21.4370 h1         1 UC6       0.066200
     16 H8          53.8860    10.4040    21.8870 ho         1 UC6       0.526000
     17 H10         54.9700    12.7900    21.1530 ho         1 UC6       0.517000
     18 C1          52.9870    15.6420    23.4740 c3         1 UC6       0.143600
     19 H3          52.5050    14.9190    24.1450 h1         1 UC6       0.026700
     20 O1          53.9010    16.4490    24.2330 oh         1 UC6      -0.706000
     21 H2          52.1980    16.2730    23.0430 h1         1 UC6       0.026700
@<TRIPOS>BOND
     1     1     2 1   
     2     1     6 1   
     3     1     7 1   
     4     1    10 1   
     5     2     3 1   
     6     2     8 2   
     7     3     4 1   
     8     3     9 1   
     9     3    11 1   
    10     4     5 1   
    11     4    13 1   
    12     4    18 1   
    13     5     6 1   
    14     6    14 1   
    15     6    15 1   
    16     7    16 1   
    17     9    17 1   
    18    12    20 1   
    19    18    19 1   
    20    18    20 1   
    21    18    21 1   
@<TRIPOS>SUBSTRUCTURE
     1 UC6         1 TEMP              0 ****  ****    0 ROOT
