@<TRIPOS>MOLECULE
UC6
   21    21     1     0     0
SMALL
abcg2


@<TRIPOS>ATOM
      1 C4          52.8980    11.8020    22.6740 c6         1 UC6       0.047300
      2 C5          54.3110    12.3340    22.5510 c          1 UC6       0.504100
      3 C6          54.5120    13.7160    23.1330 c6         1 UC6       0.060300
      4 C2          53.6070    14.6780    22.3080 c6         1 UC6       0.127300
      5 O2          52.5080    13.9930    21.7340 os         1 UC6      -0.435000
      6 C3          51.9570    13.0020    22.5770 c6         1 UC6       0.153600
      7 O3          52.6000    10.8690    21.6770 oh         1 UC6      -0.697000
      8 O4          55.1890    11.7240    21.9930 o          1 UC6      -0.502100
      9 O5          55.8470    14.0990    23.1680 oh         1 UC6      -0.673000
     10 H7          52.8090    11.3690    23.6850 h1         1 UC6       0.056700
     11 H9          54.1580    13.6910    24.1720 h1         1 UC6       0.093700
     12 H1          53.8590    17.2980    24.1640 ho         1 UC6       0.507000
     13 H4          54.2060    15.0410    21.4660 h1         1 UC6       0.090700
     14 H5          51.7520    13.3920    23.5800 h1         1 UC6       0.066200
     15 H6          51.0020    12.6940    22.1490 h1         1 UC6       0.066200
     16 H8          53.3510    10.2720    21.5790 ho         1 UC6       0.526000
     17 H10         56.2450    13.9270    22.3070 ho         1 UC6       0.517000
     18 C1          53.0960    15.8690    23.1100 c3         1 UC6       0.143600
     19 H3          52.4400    15.5100    23.9160 h1         1 UC6       0.026700
     20 O1          54.1950    16.5810    23.6200 oh         1 UC6      -0.706000
     21 H2          52.4800    16.4870    22.4440 h1         1 UC6       0.026700
@<TRIPOS>BOND
     1     1     2 1   
     2     1     6 1   
     3     1     7 1   
     4     1    10 1   
     5     2     3 1   
     6     2     8 2   
     7     3     4 1   
     8     3     9 1   
     9     3    11 1   
    10     4     5 1   
    11     4    13 1   
    12     4    18 1   
    13     5     6 1   
    14     6    14 1   
    15     6    15 1   
    16     7    16 1   
    17     9    17 1   
    18    12    20 1   
    19    18    19 1   
    20    18    20 1   
    21    18    21 1   
@<TRIPOS>SUBSTRUCTURE
     1 UC6         1 TEMP              0 ****  ****    0 ROOT
