@<TRIPOS>MOLECULE
UC7
   48    50     1     0     0
SMALL
abcg2


@<TRIPOS>ATOM
      1 C01        -28.3550    -5.7790    -7.5440 c3         1 UC7      -0.089100
      2 C02        -29.0490    -6.9700    -8.2020 c3         1 UC7      -0.073400
      3 C03        -28.6590    -7.1430    -9.6670 c3         1 UC7      -0.107400
      4 C04        -29.3700    -8.3320   -10.3140 c3         1 UC7       0.223800
      5 C06        -27.8500    -9.1880   -12.0900 ca         1 UC7       0.406000
      6 C07        -26.9540    -9.7370   -11.1590 ca         1 UC7      -0.257000
      7 C08        -25.8110   -10.4020   -11.5690 ca         1 UC7       0.049000
      8 C09        -25.4930   -10.5590   -12.9120 ca         1 UC7      -0.246600
      9 C10        -24.2850   -11.2670   -13.3020 c          1 UC7       0.599600
     10 C14        -23.0440   -13.6910   -14.9800 c3         1 UC7      -0.091400
     11 C15        -24.1410   -14.2410   -15.8870 c3         1 UC7      -0.076400
     12 C16        -24.2980   -15.7540   -15.7570 c3         1 UC7      -0.088100
     13 C17        -24.8490   -10.8930   -15.6800 c          1 UC7       0.589600
     14 C19        -26.0590   -10.1630   -15.2580 ca         1 UC7      -0.175600
     15 C20        -26.8950    -9.6300   -16.2220 ca         1 UC7      -0.007000
     16 C21        -28.0510    -8.9410   -15.8470 ca         1 UC7      -0.150000
     17 C22        -28.3660    -8.7920   -14.5120 ca         1 UC7      -0.050000
     18 C23        -27.5440    -9.3220   -13.5000 ca         1 UC7      -0.123000
     19 C24        -26.3620   -10.0170   -13.8850 ca         1 UC7       0.077000
     20 N05        -28.9800    -8.5680   -11.6950 nu         1 UC7      -0.961200
     21 N12        -24.0420   -11.4170   -14.6770 n          1 UC7      -0.374400
     22 O11        -23.4820   -11.7330   -12.4950 o          1 UC7      -0.546000
     23 O18        -24.5570   -11.0420   -16.8620 o          1 UC7      -0.543000
     24 H1         -28.6450    -5.6810    -6.4950 hc         1 UC7       0.036033
     25 H2         -27.2680    -5.8910    -7.5830 hc         1 UC7       0.036033
     26 H3         -28.6130    -4.8470    -8.0530 hc         1 UC7       0.036033
     27 H4         -30.1350    -6.8490    -8.1290 hc         1 UC7       0.038700
     28 H5         -28.8030    -7.8860    -7.6550 hc         1 UC7       0.038700
     29 H6         -27.5760    -7.2790    -9.7450 hc         1 UC7       0.050700
     30 H7         -28.9040    -6.2370   -10.2290 hc         1 UC7       0.050700
     31 H8         -30.4470    -8.1610   -10.3150 h1         1 UC7       0.054700
     32 H9         -29.1940    -9.2400    -9.7330 h1         1 UC7       0.054700
     33 H10        -27.1510    -9.6400   -10.1030 ha         1 UC7       0.123000
     34 H11        -25.1420   -10.8130   -10.8250 ha         1 UC7       0.135000
     35 H12        -22.0360   -11.8710   -14.4050 h1         1 UC7       0.068200
     36 H13        -22.5990   -11.8820   -16.0810 h1         1 UC7       0.068200
     37 H14        -23.2560   -13.9660   -13.9440 hc         1 UC7       0.049700
     38 H15        -22.0880   -14.1580   -15.2390 hc         1 UC7       0.049700
     39 H16        -23.9200   -13.9790   -16.9260 hc         1 UC7       0.042700
     40 H17        -25.0910   -13.7570   -15.6430 hc         1 UC7       0.042700
     41 H18        -25.0880   -16.1290   -16.4110 hc         1 UC7       0.030367
     42 H19        -23.3710   -16.2680   -16.0230 hc         1 UC7       0.030367
     43 H20        -24.5500   -16.0340   -14.7310 hc         1 UC7       0.030367
     44 H21        -26.6430    -9.7550   -17.2650 ha         1 UC7       0.141000
     45 H22        -28.7010    -8.5230   -16.6050 ha         1 UC7       0.122000
     46 H23        -29.2700    -8.2520   -14.2640 ha         1 UC7       0.102000
     47 H24        -29.5580    -8.1360   -12.3950 hn         1 UC7       0.490000
     48 C13        -22.8430   -12.1790   -15.0660 c3         1 UC7       0.096000
@<TRIPOS>BOND
     1     1     2 1   
     2     1    24 1   
     3     1    25 1   
     4     1    26 1   
     5     2     3 1   
     6     2    27 1   
     7     2    28 1   
     8     3     4 1   
     9     3    29 1   
    10     3    30 1   
    11     4    20 1   
    12     4    31 1   
    13     4    32 1   
    14     5     6 ar  
    15     5    18 ar  
    16     5    20 1   
    17     6     7 ar  
    18     6    33 1   
    19     7     8 ar  
    20     7    34 1   
    21     8     9 1   
    22     8    19 ar  
    23     9    21 1   
    24     9    22 2   
    25    10    11 1   
    26    10    37 1   
    27    10    38 1   
    28    10    48 1   
    29    11    12 1   
    30    11    39 1   
    31    11    40 1   
    32    12    41 1   
    33    12    42 1   
    34    12    43 1   
    35    13    14 1   
    36    13    21 1   
    37    13    23 2   
    38    14    15 ar  
    39    14    19 ar  
    40    15    16 ar  
    41    15    44 1   
    42    16    17 ar  
    43    16    45 1   
    44    17    18 ar  
    45    17    46 1   
    46    18    19 ar  
    47    20    47 1   
    48    21    48 1   
    49    35    48 1   
    50    36    48 1   
@<TRIPOS>SUBSTRUCTURE
     1 UC7         1 TEMP              0 ****  ****    0 ROOT
