@<TRIPOS>MOLECULE
UC7
   48    50     1     0     0
SMALL
No Charge or Current Charge


@<TRIPOS>ATOM
      1 C01        -27.9080    -5.1710    -8.5540 c3         1 UC7      -0.089100
      2 C02        -28.8310    -6.4030    -8.6320 c3         1 UC7      -0.073400
      3 C03        -28.6500    -7.2120    -9.9350 c3         1 UC7      -0.107400
      4 C04        -29.5730    -8.4460   -10.0100 c3         1 UC7       0.223800
      5 C06        -28.1950    -9.7500   -11.7270 ca         1 UC7       0.406000
      6 C07        -27.4240   -10.4740   -10.8100 ca         1 UC7      -0.257000
      7 C08        -26.2310   -11.0880   -11.2070 ca         1 UC7       0.049000
      8 C09        -25.7890   -10.9880   -12.5400 ca         1 UC7      -0.246600
      9 C10        -24.5090   -11.6590   -12.9440 c          1 UC7       0.599600
     10 C14        -22.9730   -13.6950   -15.0640 c3         1 UC7      -0.091400
     11 C15        -23.8860   -13.9690   -16.2810 c3         1 UC7      -0.076400
     12 C16        -23.9560   -15.4610   -16.6570 c3         1 UC7      -0.088100
     13 C17        -24.8270   -10.8180   -15.2400 c          1 UC7       0.589600
     14 C19        -26.1070   -10.1620   -14.8030 ca         1 UC7      -0.175600
     15 C20        -26.8680    -9.4310   -15.7400 ca         1 UC7      -0.007000
     16 C21        -28.0610    -8.8090   -15.3500 ca         1 UC7      -0.150000
     17 C22        -28.5090    -8.9080   -14.0270 ca         1 UC7      -0.050000
     18 C23        -27.7640    -9.6390   -13.0720 ca         1 UC7      -0.123000
     19 C24        -26.5540   -10.2640   -13.4720 ca         1 UC7       0.077000
     20 N05        -29.3850    -9.1620   -11.2830 nu         1 UC7      -0.961200
     21 N12        -24.1130   -11.5530   -14.2830 n          1 UC7      -0.374400
     22 O11        -23.8450   -12.2810   -12.1240 o          1 UC7      -0.546000
     23 O18        -24.4310   -10.7050   -16.3940 o          1 UC7      -0.543000
     24 H1         -28.0720    -4.6300    -7.6140 hc         1 UC7       0.036033
     25 H2         -26.8550    -5.4720    -8.5970 hc         1 UC7       0.036033
     26 H3         -28.1070    -4.4840    -9.3850 hc         1 UC7       0.036033
     27 H4         -29.8740    -6.0730    -8.5500 hc         1 UC7       0.038700
     28 H5         -28.6320    -7.0520    -7.7700 hc         1 UC7       0.038700
     29 H6         -27.6050    -7.5350   -10.0120 hc         1 UC7       0.050700
     30 H7         -28.8510    -6.5600   -10.7940 hc         1 UC7       0.050700
     31 H8         -30.6180    -8.1160    -9.9220 h1         1 UC7       0.054700
     32 H9         -29.3680    -9.1100    -9.1580 h1         1 UC7       0.054700
     33 H10        -27.7510   -10.5750    -9.7800 ha         1 UC7       0.123000
     34 H11        -25.6550   -11.6460   -10.4700 ha         1 UC7       0.135000
     35 H12        -22.1050   -12.1120   -13.8680 h1         1 UC7       0.068200
     36 H13        -22.3840   -11.6630   -15.5340 h1         1 UC7       0.068200
     37 H14        -23.3530   -14.2470   -14.1950 hc         1 UC7       0.049700
     38 H15        -21.9730   -14.0930   -15.2730 hc         1 UC7       0.049700
     39 H16        -23.5210   -13.4000   -17.1450 hc         1 UC7       0.042700
     40 H17        -24.9010   -13.6140   -16.0680 hc         1 UC7       0.042700
     41 H18        -24.6140   -15.6070   -17.5220 hc         1 UC7       0.030367
     42 H19        -22.9610   -15.8440   -16.9150 hc         1 UC7       0.030367
     43 H20        -24.3500   -16.0530   -15.8220 hc         1 UC7       0.030367
     44 H21        -26.5380    -9.3400   -16.7730 ha         1 UC7       0.141000
     45 H22        -28.6390    -8.2440   -16.0780 ha         1 UC7       0.122000
     46 H23        -29.4350    -8.4050   -13.7610 ha         1 UC7       0.102000
     47 H24        -30.0050    -8.8720   -12.0380 hn         1 UC7       0.490000
     48 C13        -22.8300   -12.2000   -14.6880 c3         1 UC7       0.096000
@<TRIPOS>BOND
     1     1     2 1   
     2     1    24 1   
     3     1    25 1   
     4     1    26 1   
     5     2     3 1   
     6     2    27 1   
     7     2    28 1   
     8     3     4 1   
     9     3    29 1   
    10     3    30 1   
    11     4    20 1   
    12     4    31 1   
    13     4    32 1   
    14     5     6 ar  
    15     5    18 ar  
    16     5    20 1   
    17     6     7 ar  
    18     6    33 1   
    19     7     8 ar  
    20     7    34 1   
    21     8     9 1   
    22     8    19 ar  
    23     9    21 1   
    24     9    22 2   
    25    10    11 1   
    26    10    37 1   
    27    10    38 1   
    28    10    48 1   
    29    11    12 1   
    30    11    39 1   
    31    11    40 1   
    32    12    41 1   
    33    12    42 1   
    34    12    43 1   
    35    13    14 1   
    36    13    21 1   
    37    13    23 2   
    38    14    15 ar  
    39    14    19 ar  
    40    15    16 ar  
    41    15    44 1   
    42    16    17 ar  
    43    16    45 1   
    44    17    18 ar  
    45    17    46 1   
    46    18    19 ar  
    47    20    47 1   
    48    21    48 1   
    49    35    48 1   
    50    36    48 1   
@<TRIPOS>SUBSTRUCTURE
     1 UC7         1 TEMP              0 ****  ****    0 ROOT
