@<TRIPOS>MOLECULE
UC8
   80    85     1     0     0
SMALL
No Charge or Current Charge


@<TRIPOS>ATOM
      1 C10         15.7810   -14.0900   -12.7290 ca         1 UC8      -0.108000
      2 C13         16.7370   -14.3650    -9.0170 cp         1 UC8       0.436500
      3 C15         18.1670   -15.8720    -7.9430 ca         1 UC8       0.365900
      4 C21         17.1000   -14.2000    -6.5530 ca         1 UC8      -0.020000
      5 C22         16.5100   -13.6890    -7.7210 cq         1 UC8      -0.082000
      6 C24         14.9000   -12.1450    -6.5080 ca         1 UC8      -0.092000
      7 C26         14.3600    -9.9380    -7.3860 ca         1 UC8      -0.104000
      8 C28         15.9140   -11.3820    -8.5810 ca         1 UC8      -0.092000
      9 C09         14.4320   -13.7000   -12.6570 ca         1 UC8      -0.076300
     10 C11         16.5240   -14.3080   -11.5560 ca         1 UC8      -0.079500
     11 C12         15.9410   -14.1330   -10.2730 cp         1 UC8      -0.154500
     12 C16         17.9350   -15.3310    -6.6650 ca         1 UC8      -0.208600
     13 C19         20.1130   -17.6870    -4.5280 c3         1 UC8       0.094300
     14 C23         15.7610   -12.3870    -7.6010 cq         1 UC8      -0.040000
     15 C25         14.2030   -10.9280    -6.4040 ca         1 UC8      -0.111500
     16 C27         15.2160   -10.1660    -8.4740 ca         1 UC8      -0.111500
     17 C29         14.5750   -13.7530   -10.2210 ca         1 UC8      -0.079500
     18 C30         13.8330   -13.5360   -11.3950 ca         1 UC8      -0.108000
     19 N14         17.6090   -15.3960    -9.0780 nb         1 UC8      -0.675000
     20 N18         19.4020   -17.0080    -5.6150 ns         1 UC8      -0.503900
     21 O20         18.4160   -15.4260    -4.3290 o          1 UC8      -0.599100
     22 C02         12.7560   -18.7100   -17.6670 c          1 UC8       0.594000
     23 C04         11.9170   -16.7760   -16.1880 c6         1 UC8       0.140700
     24 C05         12.7030   -15.6710   -16.9310 c6         1 UC8      -0.093900
     25 C06         12.7970   -14.4010   -16.0560 c6         1 UC8       0.168800
     26 C31         12.6410   -15.7370   -13.9880 c6         1 UC8       0.168800
     27 C32         12.5270   -17.0490   -14.7980 c6         1 UC8      -0.093900
     28 C33         10.4590   -18.5290   -17.3590 ca         1 UC8       0.028600
     29 C34          9.1870   -18.3360   -16.8040 ca         1 UC8      -0.158000
     30 C35          8.1120   -19.1190   -17.2890 ca         1 UC8      -0.026000
     31 C38          4.4390   -18.7970   -16.1560 c3         1 UC8      -0.158400
     32 C39          3.9130   -19.8650   -15.1720 c3         1 UC8      -0.078100
     33 C41          8.3590   -20.1280   -18.2650 ca         1 UC8      -0.112000
     34 C42          9.6660   -20.3740   -18.7400 ca         1 UC8      -0.091000
     35 C43         10.6890   -19.5630   -18.2470 ca         1 UC8      -0.012400
     36 N03         11.7400   -18.0220   -16.9710 n          1 UC8      -0.296000
     37 N07         13.4090   -14.6970   -14.7320 n3         1 UC8      -0.717600
     38 N36          6.8270   -18.8660   -16.7360 ns         1 UC8      -0.162000
     39 N44         12.0740   -19.6210   -18.4220 ns         1 UC8      -0.503600
     40 O40          5.3220   -20.1160   -17.9720 o          1 UC8      -0.575100
     41 H1          16.2530   -14.2290   -13.7000 ha         1 UC8       0.122500
     42 H2          18.8310   -16.7220    -8.0860 h4         1 UC8       0.018100
     43 H3          16.9560   -13.7170    -5.5880 ha         1 UC8       0.146000
     44 H4          14.7490   -12.9000    -5.7410 ha         1 UC8       0.118000
     45 H5          13.8190    -8.9980    -7.3040 ha         1 UC8       0.113000
     46 H6          16.5790   -11.5300    -9.4280 ha         1 UC8       0.118000
     47 H7          14.1760   -12.7280   -14.5400 h1         1 UC8       0.038200
     48 H8          12.6640   -13.0080   -13.6780 h1         1 UC8       0.038200
     49 H9          17.5670   -14.6050   -11.6430 ha         1 UC8       0.122500
     50 H10         20.6860   -18.5300    -4.9350 h1         1 UC8       0.041700
     51 H11         20.8000   -16.9850    -4.0390 h1         1 UC8       0.041700
     52 H12         19.3900   -18.0640    -3.7930 h1         1 UC8       0.041700
     53 H13         13.5380   -10.7550    -5.5600 ha         1 UC8       0.114500
     54 H14         15.3410    -9.4000    -9.2350 ha         1 UC8       0.114500
     55 H15         14.0770   -13.6360    -9.2610 ha         1 UC8       0.122500
     56 H16         12.7870   -13.2450   -11.3210 ha         1 UC8       0.122500
     57 H17         19.5090   -17.3660    -6.5560 hn         1 UC8       0.318500
     58 H18         10.9140   -16.3640   -16.0120 h1         1 UC8       0.047700
     59 H19         13.7180   -16.0090   -17.1710 hc         1 UC8       0.067200
     60 H20         12.2110   -15.4320   -17.8830 hc         1 UC8       0.067200
     61 H21         13.3940   -13.6490   -16.5920 h1         1 UC8       0.033700
     62 H22         11.7890   -13.9790   -15.9230 h1         1 UC8       0.033700
     63 H23         11.6310   -15.3680   -13.7570 h1         1 UC8       0.033700
     64 H24         13.1270   -15.9680   -13.0290 h1         1 UC8       0.033700
     65 H25         11.9080   -17.7700   -14.2490 hc         1 UC8       0.067200
     66 H26         13.5220   -17.5000   -14.9060 hc         1 UC8       0.067200
     67 H27          9.0260   -17.5930   -16.0270 ha         1 UC8       0.120000
     68 H28          4.8060   -17.9440   -15.5710 hc         1 UC8       0.055700
     69 H29          3.6060   -18.4770   -16.7920 hc         1 UC8       0.055700
     70 H30          3.1130   -19.4500   -14.5460 hc         1 UC8       0.044367
     71 H31          3.5100   -20.7300   -15.7130 hc         1 UC8       0.044367
     72 H32          4.7170   -20.2160   -14.5120 hc         1 UC8       0.044367
     73 H33          7.5580   -20.7600   -18.6360 ha         1 UC8       0.139000
     74 H34          9.8700   -21.1800   -19.4410 ha         1 UC8       0.126000
     75 H36          6.8380   -18.2140   -15.9620 hn         1 UC8       0.148000
     76 H37         12.5490   -20.2840   -19.0260 hn         1 UC8       0.468000
     77 C17         18.5910   -15.9070    -5.4400 c          1 UC8       0.616700
     78 C08         13.6300   -13.4650   -13.9350 c3         1 UC8       0.215100
     79 O01         13.9640   -18.5510   -17.6270 o          1 UC8      -0.562000
     80 C37          5.5610   -19.3480   -17.0490 c          1 UC8       0.604100
@<TRIPOS>BOND
     1     1     9 ar  
     2     1    10 ar  
     3     1    41 1   
     4     2     5 1   
     5     2    11 1   
     6     2    19 ar  
     7     3    12 ar  
     8     3    19 ar  
     9     3    42 1   
    10     4     5 2   
    11     4    12 ar  
    12     4    43 1   
    13     5    14 1   
    14     6    14 1   
    15     6    15 ar  
    16     6    44 1   
    17     7    15 ar  
    18     7    16 ar  
    19     7    45 1   
    20     8    14 2   
    21     8    16 ar  
    22     8    46 1   
    23     9    18 ar  
    24     9    78 1   
    25    10    11 ar  
    26    10    49 1   
    27    11    17 ar  
    28    12    77 1   
    29    13    20 1   
    30    13    50 1   
    31    13    51 1   
    32    13    52 1   
    33    15    53 1   
    34    16    54 1   
    35    17    18 ar  
    36    17    55 1   
    37    18    56 1   
    38    20    57 1   
    39    20    77 1   
    40    21    77 2   
    41    22    36 1   
    42    22    39 1   
    43    22    79 2   
    44    23    24 1   
    45    23    27 1   
    46    23    36 1   
    47    23    58 1   
    48    24    25 1   
    49    24    59 1   
    50    24    60 1   
    51    25    37 1   
    52    25    61 1   
    53    25    62 1   
    54    26    27 1   
    55    26    37 1   
    56    26    63 1   
    57    26    64 1   
    58    27    65 1   
    59    27    66 1   
    60    28    29 ar  
    61    28    35 ar  
    62    28    36 1   
    63    29    30 ar  
    64    29    67 1   
    65    30    33 ar  
    66    30    38 1   
    67    31    32 1   
    68    31    68 1   
    69    31    69 1   
    70    31    80 1   
    71    32    70 1   
    72    32    71 1   
    73    32    72 1   
    74    33    34 ar  
    75    33    73 1   
    76    34    35 ar  
    77    34    74 1   
    78    35    39 1   
    79    37    78 1   
    80    38    75 1   
    81    38    80 1   
    82    39    76 1   
    83    40    80 2   
    84    47    78 1   
    85    48    78 1   
@<TRIPOS>SUBSTRUCTURE
     1 UC8         1 TEMP              0 ****  ****    0 ROOT
