@<TRIPOS>MOLECULE
UC8
   80    85     1     0     0
SMALL
bcc


@<TRIPOS>ATOM
      1 C10         14.9340   -14.6370   -12.1030 ca         1 UC8      -0.126000
      2 C13         16.6400   -14.6250    -8.7430 cp         1 UC8       0.501800
      3 C15         18.0940   -16.1150    -7.7780 ca         1 UC8       0.431200
      4 C21         17.8890   -13.9570    -6.8220 ca         1 UC8      -0.038000
      5 C22         16.9820   -13.6240    -7.8170 cq         1 UC8      -0.147300
      6 C24         15.8830   -11.6440    -6.7760 ca         1 UC8      -0.110000
      7 C26         15.5630    -9.6000    -8.0020 ca         1 UC8      -0.122000
      8 C28         16.6040   -11.4940    -9.0620 ca         1 UC8      -0.110000
      9 C09         13.6910   -14.0780   -11.8130 ca         1 UC8      -0.076300
     10 C11         15.8800   -14.8210   -11.1080 ca         1 UC8      -0.097500
     11 C12         15.6220   -14.4230    -9.7970 cp         1 UC8      -0.154500
     12 C16         18.4460   -15.2270    -6.7660 ca         1 UC8      -0.273900
     13 C19         20.5500   -17.2570    -4.3780 c3         1 UC8       0.094300
     14 C23         16.4680   -12.2390    -7.8910 cq         1 UC8      -0.040000
     15 C25         15.4280   -10.3340    -6.8320 ca         1 UC8      -0.129500
     16 C27         16.1570   -10.1830    -9.1150 ca         1 UC8      -0.129500
     17 C29         14.3760   -13.8740    -9.5020 ca         1 UC8      -0.097500
     18 C30         13.4230   -13.7170   -10.4960 ca         1 UC8      -0.126000
     19 N14         17.2190   -15.8230    -8.7240 nb         1 UC8      -0.675000
     20 N18         19.6030   -16.8270    -5.3810 ns         1 UC8      -0.570900
     21 O20         20.0520   -14.6360    -5.1330 o          1 UC8      -0.599100
     22 C02         12.6770   -18.2830   -17.3590 c          1 UC8       0.803500
     23 C04         11.4980   -16.7650   -15.7360 c6         1 UC8       0.140700
     24 C05         12.0290   -15.4210   -16.2180 c6         1 UC8      -0.093900
     25 C06         11.9310   -14.3960   -15.0990 c6         1 UC8       0.168800
     26 C31         12.1020   -16.0880   -13.4150 c6         1 UC8       0.168800
     27 C32         12.2080   -17.1930   -14.4550 c6         1 UC8      -0.093900
     28 C33         10.4200   -18.3990   -17.3280 ca         1 UC8       0.028600
     29 C34          9.0690   -18.2570   -17.0810 ca         1 UC8      -0.176000
     30 C35          8.1770   -19.0300   -17.8300 ca         1 UC8       0.066600
     31 C38          4.4450   -19.2320   -17.3240 c3         1 UC8      -0.158400
     32 C39          3.4530   -20.2850   -16.8640 c3         1 UC8      -0.078100
     33 C41          8.6460   -19.9240   -18.7940 ca         1 UC8      -0.130000
     34 C42         10.0100   -20.0740   -19.0240 ca         1 UC8      -0.109000
     35 C43         10.8850   -19.3050   -18.2850 ca         1 UC8      -0.012400
     36 N03         11.5290   -17.7880   -16.7710 n          1 UC8      -0.363000
     37 N07         12.6490   -14.8400   -13.9170 n3         1 UC8      -0.717600
     38 N36          6.8040   -18.8350   -17.6000 ns         1 UC8      -0.488100
     39 N44         12.2580   -19.2100   -18.2780 ns         1 UC8      -0.457100
     40 O40          6.0420   -20.9640   -17.8020 o          1 UC8      -0.575100
     41 H1          15.1610   -14.9380   -13.1180 ha         1 UC8       0.140500
     42 H2          18.5460   -17.0990    -7.8460 h4         1 UC8       0.018100
     43 H3          18.1790   -13.2100    -6.0940 ha         1 UC8       0.164000
     44 H4          15.7680   -12.2150    -5.8620 ha         1 UC8       0.136000
     45 H5          15.2110    -8.5770    -8.0470 ha         1 UC8       0.131000
     46 H6          17.0680   -11.9390    -9.9330 ha         1 UC8       0.136000
     47 H7          12.9370   -12.8680   -13.3800 h1         1 UC8       0.038200
     48 H8          11.6880   -13.6580   -12.4360 h1         1 UC8       0.038200
     49 H9          16.8380   -15.2610   -11.3560 ha         1 UC8       0.140500
     50 H10         20.5370   -18.3420    -4.3380 h1         1 UC8       0.041700
     51 H11         21.5610   -16.9340    -4.6240 h1         1 UC8       0.041700
     52 H12         20.2980   -16.8720    -3.3890 h1         1 UC8       0.041700
     53 H13         14.9670    -9.8880    -5.9600 ha         1 UC8       0.132500
     54 H14         16.2740    -9.6130   -10.0280 ha         1 UC8       0.132500
     55 H15         14.1370   -13.5830    -8.4880 ha         1 UC8       0.140500
     56 H16         12.4530   -13.3050   -10.2410 ha         1 UC8       0.140500
     57 H17         18.9930   -17.5230    -5.7770 hn         1 UC8       0.318500
     58 H18         10.4420   -16.6280   -15.4890 h1         1 UC8       0.047700
     59 H19         13.0690   -15.5160   -16.5330 hc         1 UC8       0.067200
     60 H20         11.4520   -15.0770   -17.0790 hc         1 UC8       0.067200
     61 H21         12.3600   -13.4500   -15.4360 h1         1 UC8       0.033700
     62 H22         10.8670   -14.2010   -14.8740 h1         1 UC8       0.033700
     63 H23         11.0470   -15.9640   -13.1100 h1         1 UC8       0.033700
     64 H24         12.6530   -16.3860   -12.5210 h1         1 UC8       0.033700
     65 H25         11.7570   -18.1070   -14.0640 hc         1 UC8       0.067200
     66 H26         13.2600   -17.3990   -14.6550 hc         1 UC8       0.067200
     67 H27          8.6940   -17.5700   -16.3330 ha         1 UC8       0.138000
     68 H28          4.5040   -18.4190   -16.5960 hc         1 UC8       0.055700
     69 H29          4.0960   -18.7690   -18.2530 hc         1 UC8       0.055700
     70 H30          2.4760   -19.8310   -16.7040 hc         1 UC8       0.044367
     71 H31          3.3340   -21.0760   -17.6020 hc         1 UC8       0.044367
     72 H32          3.7620   -20.7450   -15.9250 hc         1 UC8       0.044367
     73 H33          7.9520   -20.5010   -19.3850 ha         1 UC8       0.157000
     74 H34         10.3670   -20.7690   -19.7720 ha         1 UC8       0.144000
     75 H36          6.5350   -17.9080   -17.3060 hn         1 UC8       0.314500
     76 H37         12.8920   -19.7300   -18.8620 hn         1 UC8       0.354500
     77 C17         19.4360   -15.5350    -5.6910 c          1 UC8       0.683700
     78 C08         12.6780   -13.8150   -12.8970 c3         1 UC8       0.215100
     79 O01         13.8270   -17.9660   -17.1170 o          1 UC8      -0.637500
     80 C37          5.8310   -19.7840   -17.5910 c          1 UC8       0.671100
@<TRIPOS>BOND
     1     1     9 ar  
     2     1    10 ar  
     3     1    41 1   
     4     2     5 1   
     5     2    11 1   
     6     2    19 ar  
     7     3    12 ar  
     8     3    19 ar  
     9     3    42 1   
    10     4     5 2   
    11     4    12 ar  
    12     4    43 1   
    13     5    14 1   
    14     6    14 1   
    15     6    15 ar  
    16     6    44 1   
    17     7    15 ar  
    18     7    16 ar  
    19     7    45 1   
    20     8    14 2   
    21     8    16 ar  
    22     8    46 1   
    23     9    18 ar  
    24     9    78 1   
    25    10    11 ar  
    26    10    49 1   
    27    11    17 ar  
    28    12    77 1   
    29    13    20 1   
    30    13    50 1   
    31    13    51 1   
    32    13    52 1   
    33    15    53 1   
    34    16    54 1   
    35    17    18 ar  
    36    17    55 1   
    37    18    56 1   
    38    20    57 1   
    39    20    77 1   
    40    21    77 2   
    41    22    36 1   
    42    22    39 1   
    43    22    79 2   
    44    23    24 1   
    45    23    27 1   
    46    23    36 1   
    47    23    58 1   
    48    24    25 1   
    49    24    59 1   
    50    24    60 1   
    51    25    37 1   
    52    25    61 1   
    53    25    62 1   
    54    26    27 1   
    55    26    37 1   
    56    26    63 1   
    57    26    64 1   
    58    27    65 1   
    59    27    66 1   
    60    28    29 ar  
    61    28    35 ar  
    62    28    36 1   
    63    29    30 ar  
    64    29    67 1   
    65    30    33 ar  
    66    30    38 1   
    67    31    32 1   
    68    31    68 1   
    69    31    69 1   
    70    31    80 1   
    71    32    70 1   
    72    32    71 1   
    73    32    72 1   
    74    33    34 ar  
    75    33    73 1   
    76    34    35 ar  
    77    34    74 1   
    78    35    39 1   
    79    37    78 1   
    80    38    75 1   
    81    38    80 1   
    82    39    76 1   
    83    40    80 2   
    84    47    78 1   
    85    48    78 1   
@<TRIPOS>SUBSTRUCTURE
     1 UC8         1 TEMP              0 ****  ****    0 ROOT
