@<TRIPOS>MOLECULE
UC9
   53    56     1     0     0
SMALL
bcc


@<TRIPOS>ATOM
      1 C4          -5.7410     0.9510     0.4700 ca         1 UC9       0.541600
      2 C5          -4.5870     0.2800     0.0710 ca         1 UC9      -0.332600
      3 C6          -4.6820    -0.4640    -1.1350 ca         1 UC9       0.764200
      4 N1          -5.8120    -0.5180    -1.8280 nb         1 UC9      -0.868000
      5 N3          -6.8700     0.8930    -0.2260 nb         1 UC9      -0.824000
      6 CAK         -5.2610     3.2340     1.3520 c3         1 UC9      -0.084100
      7 CAI         -5.7430     1.8230     1.6880 c3         1 UC9      -0.133700
      8 C2          -6.8540     0.1550    -1.3410 ca         1 UC9       0.948900
      9 NAH         -8.0090     0.0650    -2.0260 nv         1 UC9      -0.958500
     10 NAG         -3.6310    -1.1560    -1.5990 nv         1 UC9      -0.952500
     11 CAJ         -3.3720     0.3090     0.7980 cg         1 UC9      -0.108000
     12 CAL         -2.3070     0.2870     1.3670 c1         1 UC9      -0.134100
     13 CAM         -1.0260     0.2160     2.0680 c3         1 UC9       0.079700
     14 CBC         -1.1850    -0.4550     3.4390 c3         1 UC9      -0.081100
     15 CAN          0.0080    -0.4990     1.2220 ca         1 UC9      -0.086300
     16 CAO          1.2730     0.0410     1.0750 ca         1 UC9      -0.124000
     17 CAS         -0.3070    -1.7340     0.6320 ca         1 UC9      -0.136000
     18 CAR          0.6870    -2.3530    -0.0780 ca         1 UC9       0.045100
     19 OAW          0.6210    -3.5140    -0.7730 os         1 UC9      -0.334900
     20 CAV          1.9510    -3.8080    -1.1770 c5         1 UC9       0.325200
     21 OAU          2.7010    -2.6130    -1.0130 os         1 UC9      -0.303900
     22 CAQ          1.9540    -1.8060    -0.2180 ca         1 UC9       0.047100
     23 CAP          2.2980    -0.5970     0.3470 cp         1 UC9       0.035000
     24 CAT          3.6270     0.0210     0.1900 cp         1 UC9      -0.091000
     25 CAX          4.7980    -0.7360     0.2470 ca         1 UC9      -0.133000
     26 CAY          6.0390    -0.1310     0.1220 ca         1 UC9      -0.113500
     27 CAZ          6.1560     1.2430    -0.0690 ca         1 UC9      -0.114600
     28 CBD          7.5230     1.9020    -0.2030 c          1 UC9       0.922200
     29 OBF          8.5130     1.1500    -0.1340 o          1 UC9      -0.822300
     30 OBE          7.5320     3.1370    -0.3690 o          1 UC9      -0.822300
     31 CBA          4.9870     1.9970    -0.1280 ca         1 UC9      -0.113500
     32 CBB          3.7430     1.3990    -0.0020 ca         1 UC9      -0.133000
     33 H1          -5.8790     3.6830     0.5740 hc         1 UC9       0.037700
     34 H2          -5.3100     3.8760     2.2310 hc         1 UC9       0.037700
     35 H3          -4.2290     3.2260     1.0000 hc         1 UC9       0.037700
     36 H4          -6.7590     1.8670     2.0830 hc         1 UC9       0.059200
     37 H5          -5.1060     1.3930     2.4630 hc         1 UC9       0.059200
     38 H6          -8.0030    -0.3350    -2.9480 hn         1 UC9       0.437300
     39 H7          -8.7640     0.6860    -1.7940 hn         1 UC9       0.437300
     40 H8          -2.7140    -1.0000    -1.2170 hn         1 UC9       0.444800
     41 H9          -3.6830    -1.5650    -2.5170 hn         1 UC9       0.444800
     42 H10         -0.6730     1.2390     2.2350 hc         1 UC9       0.068700
     43 H11         -1.5250    -1.4850     3.3330 hc         1 UC9       0.039700
     44 H12         -0.2310    -0.4610     3.9660 hc         1 UC9       0.039700
     45 H13         -1.9100     0.0840     4.0500 hc         1 UC9       0.039700
     46 H14          1.4970     0.9870     1.5540 ha         1 UC9       0.143000
     47 H15         -1.2920    -2.1730     0.7310 ha         1 UC9       0.145000
     48 H16          2.3670    -4.5990    -0.5440 h2         1 UC9       0.056700
     49 H17          1.9610    -4.1090    -2.2240 h2         1 UC9       0.056700
     50 H18          4.7480    -1.8040     0.4130 ha         1 UC9       0.109000
     51 H19          6.9330    -0.7380     0.1790 ha         1 UC9       0.147500
     52 H21          5.0510     3.0670    -0.2790 ha         1 UC9       0.147500
     53 H22          2.8520     2.0100    -0.0690 ha         1 UC9       0.109000
@<TRIPOS>BOND
     1     1     2 ar  
     2     1     5 ar  
     3     1     7 1   
     4     2     3 ar  
     5     2    11 1   
     6     3     4 ar  
     7     3    10 1   
     8     4     8 ar  
     9     5     8 ar  
    10     6     7 1   
    11     6    33 1   
    12     6    34 1   
    13     6    35 1   
    14     7    36 1   
    15     7    37 1   
    16     8     9 1   
    17     9    38 1   
    18     9    39 1   
    19    10    40 1   
    20    10    41 1   
    21    11    12 3   
    22    12    13 1   
    23    13    14 1   
    24    13    15 1   
    25    13    42 1   
    26    14    43 1   
    27    14    44 1   
    28    14    45 1   
    29    15    16 ar  
    30    15    17 ar  
    31    16    23 ar  
    32    16    46 1   
    33    17    18 ar  
    34    17    47 1   
    35    18    19 1   
    36    18    22 ar  
    37    19    20 1   
    38    20    21 1   
    39    20    48 1   
    40    20    49 1   
    41    21    22 1   
    42    22    23 ar  
    43    23    24 1   
    44    24    25 ar  
    45    24    32 ar  
    46    25    26 ar  
    47    25    50 1   
    48    26    27 ar  
    49    26    51 1   
    50    27    28 1   
    51    27    31 ar  
    52    28    29 1   
    53    28    30 1   
    54    31    32 ar  
    55    31    52 1   
    56    32    53 1   
@<TRIPOS>SUBSTRUCTURE
     1 UC9         1 TEMP              0 ****  ****    0 ROOT
