@<TRIPOS>MOLECULE
UC9
   53    56     1     0     0
SMALL
No Charge or Current Charge


@<TRIPOS>ATOM
      1 C4          -4.9790     0.0340    -0.5410 ca         1 UC9       0.213300
      2 C5          -4.3170     1.2850    -0.4440 ca         1 UC9      -0.202000
      3 C6          -4.9120     2.3640    -1.1330 ca         1 UC9       0.435900
      4 N1          -6.0400     2.2380    -1.8360 nb         1 UC9      -0.342000
      5 N3          -6.1200    -0.0930    -1.2520 nb         1 UC9      -0.298000
      6 CAK         -4.8720    -1.3440     1.6210 c3         1 UC9      -0.084100
      7 CAI         -4.4700    -1.2460     0.1320 c3         1 UC9      -0.133700
      8 C2          -6.5750     1.0140    -1.8510 ca         1 UC9       0.422900
      9 NAH         -7.7200     0.8820    -2.5550 nv         1 UC9      -1.068900
     10 NAG         -4.3900     3.6210    -1.1390 nv         1 UC9      -1.062900
     11 CAJ         -3.1100     1.4430     0.3280 cg         1 UC9      -0.108000
     12 CAL         -2.1010     1.5520     0.9950 c1         1 UC9      -0.134100
     13 CAM         -0.8960     1.6250     1.8330 c3         1 UC9       0.079700
     14 CBC         -1.2630     1.7700     3.3280 c3         1 UC9      -0.081100
     15 CAN         -0.0060     0.4060     1.5710 ca         1 UC9      -0.086300
     16 CAO          1.2660     0.5740     0.9620 ca         1 UC9      -0.106000
     17 CAS         -0.4400    -0.8950     1.9230 ca         1 UC9      -0.118000
     18 CAR          0.4130    -1.9720     1.6640 ca         1 UC9       0.045100
     19 OAW          0.1370    -3.2780     1.9130 os         1 UC9      -0.358100
     20 CAV          1.4040    -3.9420     1.5680 c5         1 UC9       0.371600
     21 OAU          2.2770    -2.9820     0.8780 os         1 UC9      -0.327100
     22 CAQ          1.6370    -1.7990     1.0830 ca         1 UC9       0.047100
     23 CAP          2.1280    -0.5280     0.6990 cp         1 UC9       0.035000
     24 CAT          3.4670    -0.3270     0.0560 cp         1 UC9      -0.091000
     25 CAX          4.6110    -1.0370     0.4930 ca         1 UC9      -0.115000
     26 CAY          5.8680    -0.8330    -0.1020 ca         1 UC9      -0.095500
     27 CAZ          6.0280     0.0930    -1.1590 ca         1 UC9      -0.114600
     28 CBD          7.3900     0.3210    -1.7990 c          1 UC9       0.711600
     29 OBF          8.3480    -0.3160    -1.3810 o          1 UC9      -0.717000
     30 OBE          7.4830     1.1360    -2.7060 o          1 UC9      -0.717000
     31 CBA          4.8890     0.8050    -1.6010 ca         1 UC9      -0.095500
     32 CBB          3.6340     0.5990    -1.0020 ca         1 UC9      -0.115000
     33 H1          -5.9650    -1.3260     1.7300 hc         1 UC9       0.037700
     34 H2          -4.5000    -2.2800     2.0570 hc         1 UC9       0.037700
     35 H3          -4.4550    -0.5070     2.1960 hc         1 UC9       0.037700
     36 H4          -4.8590    -2.1300    -0.3910 hc         1 UC9       0.059200
     37 H5          -3.3780    -1.3140     0.0500 hc         1 UC9       0.059200
     38 H6          -8.2130     1.7300    -2.8280 hn         1 UC9       0.492500
     39 H7          -8.2860     0.0490    -2.4050 hn         1 UC9       0.492500
     40 H8          -3.6630     3.8370    -0.4620 hn         1 UC9       0.500000
     41 H9          -4.9790     4.3910    -1.4490 hn         1 UC9       0.500000
     42 H10         -0.3590     2.5370     1.5450 hc         1 UC9       0.068700
     43 H11         -1.8630     0.9220     3.6780 hc         1 UC9       0.039700
     44 H12         -0.3550     1.8230     3.9400 hc         1 UC9       0.039700
     45 H13         -1.8390     2.6880     3.4980 hc         1 UC9       0.039700
     46 H14          1.6000     1.5740     0.6960 ha         1 UC9       0.125000
     47 H15         -1.4140    -1.0650     2.3750 ha         1 UC9       0.127000
     48 H16          1.8960    -4.2650     2.4930 h2         1 UC9       0.056700
     49 H17          1.2120    -4.8060     0.9210 h2         1 UC9       0.056700
     50 H18          4.5280    -1.7440     1.3150 ha         1 UC9       0.091000
     51 H19          6.7220    -1.3970     0.2670 ha         1 UC9       0.129500
     52 H21          4.9730     1.5240    -2.4140 ha         1 UC9       0.129500
     53 H22          2.7780     1.1590    -1.3700 ha         1 UC9       0.091000
@<TRIPOS>BOND
     1     1     2 ar  
     2     1     5 ar  
     3     1     7 1   
     4     2     3 ar  
     5     2    11 1   
     6     3     4 ar  
     7     3    10 1   
     8     4     8 ar  
     9     5     8 ar  
    10     6     7 1   
    11     6    33 1   
    12     6    34 1   
    13     6    35 1   
    14     7    36 1   
    15     7    37 1   
    16     8     9 1   
    17     9    38 1   
    18     9    39 1   
    19    10    40 1   
    20    10    41 1   
    21    11    12 3   
    22    12    13 1   
    23    13    14 1   
    24    13    15 1   
    25    13    42 1   
    26    14    43 1   
    27    14    44 1   
    28    14    45 1   
    29    15    16 ar  
    30    15    17 ar  
    31    16    23 ar  
    32    16    46 1   
    33    17    18 ar  
    34    17    47 1   
    35    18    19 1   
    36    18    22 ar  
    37    19    20 1   
    38    20    21 1   
    39    20    48 1   
    40    20    49 1   
    41    21    22 1   
    42    22    23 ar  
    43    23    24 1   
    44    24    25 ar  
    45    24    32 ar  
    46    25    26 ar  
    47    25    50 1   
    48    26    27 ar  
    49    26    51 1   
    50    27    28 1   
    51    27    31 ar  
    52    28    29 1   
    53    28    30 1   
    54    31    32 ar  
    55    31    52 1   
    56    32    53 1   
@<TRIPOS>SUBSTRUCTURE
     1 UC9         1 TEMP              0 ****  ****    0 ROOT
