@<TRIPOS>MOLECULE
UCB
   72    76     1     0     0
SMALL
abcg2


@<TRIPOS>ATOM
      1 N1          -1.5820     1.1760    -1.9780 n4         1 UCB      -0.505000
      2 N2          -1.1420     2.9960     1.2280 ns         1 UCB      -0.528900
      3 C1           0.5840     5.9380     2.1200 ca         1 UCB      -0.146300
      4 C2          -0.3100     3.6410     2.0580 c          1 UCB       0.598100
      5 C3          -1.0160     1.5760     0.9450 c6         1 UCB       0.117700
      6 C4          -1.5020    -0.3220    -2.1510 c3         1 UCB       0.100600
      7 C5          -0.3050     1.7880    -1.4640 c6         1 UCB       0.101100
      8 C6           1.7360    -1.8900    -3.5640 c3         1 UCB      -0.073900
      9 C7          -1.9110     5.2670     6.4180 ca         1 UCB      -0.057500
     10 C8          -1.0760    -2.3430    -3.4860 c3         1 UCB      -0.072400
     11 C9          -2.8290     4.9860     5.4170 ca         1 UCB       0.094500
     12 C10          0.0820     1.3020    -0.0830 c6         1 UCB      -0.118900
     13 C11          2.9800     7.3250     1.7810 ca         1 UCB      -0.057500
     14 C12         -0.6530     5.1110     2.3180 c6         1 UCB      -0.021100
     15 C13         -0.5990     5.5440     6.0770 ca         1 UCB      -0.110500
     16 C14          1.6840    -3.1350    -2.6480 c3         1 UCB      -0.073900
     17 C15         -2.4460     4.9610     4.0880 ca         1 UCB      -0.073000
     18 C16         -2.3410     1.0310     0.4290 c6         1 UCB      -0.118900
     19 C17         -2.6670     1.4910    -0.9810 c6         1 UCB       0.101100
     20 C18         -0.8620    -3.2850    -2.3030 c3         1 UCB      -0.073900
     21 C19          0.5190    -3.1850    -1.6610 c3         1 UCB      -0.073900
     22 C20          1.4080     6.2060     3.2040 ca         1 UCB       0.157100
     23 C21         -0.6370    -0.8820    -3.2810 c3         1 UCB      -0.069700
     24 C22          0.9590     6.3860     0.8610 ca         1 UCB      -0.073000
     25 C23          0.8900    -0.7120    -3.0840 c3         1 UCB      -0.072400
     26 C24         -0.2140     5.5230     4.7430 ca         1 UCB       0.157100
     27 C25          2.1500     7.0730     0.6990 ca         1 UCB       0.094500
     28 C26         -1.1270     5.2210     3.7420 ca         1 UCB      -0.146300
     29 C27         -1.9010     1.8530    -3.2870 c3         1 UCB       0.101600
     30 C28          2.6020     6.8950     3.0410 ca         1 UCB      -0.110500
     31 O1           0.6450     3.1180     2.6050 o          1 UCB      -0.558100
     32 O2           1.0810     5.8280     4.4680 os         1 UCB      -0.211200
     33 CL2          2.6120     7.6180    -0.8800 cl         1 UCB      -0.187500
     34 C29         -3.1450     1.3550    -3.9880 c3         1 UCB      -0.122100
     35 H25         -1.9140     3.5070     0.8320 hn         1 UCB       0.310500
     36 H32         -0.7630     1.0670     1.8760 h1         1 UCB       0.108700
     37 H2          -1.1910    -0.7390    -1.1960 hx         1 UCB       0.088700
     38 H12         -2.5320    -0.6460    -2.3020 hx         1 UCB       0.088700
     39 H7          -0.4740     2.8660    -1.4540 hx         1 UCB       0.089700
     40 H16          0.4800     1.6000    -2.1910 hx         1 UCB       0.089700
     41 H3           2.7700    -1.5490    -3.6350 hc         1 UCB       0.049450
     42 H21          1.4490    -2.1490    -4.5850 hc         1 UCB       0.049450
     43 H5          -2.2130     5.2820     7.4560 ha         1 UCB       0.144500
     44 H9          -0.5490    -2.7320    -4.3590 hc         1 UCB       0.046950
     45 H27         -2.1340    -2.3490    -3.7640 hc         1 UCB       0.046950
     46 H6           0.3210     0.2360    -0.0820 hc         1 UCB       0.091700
     47 H20          1.0040     1.8110     0.1970 hc         1 UCB       0.091700
     48 H30          3.9090     7.8630     1.6510 ha         1 UCB       0.144500
     49 H17         -1.4420     5.4480     1.6400 hc         1 UCB       0.066700
     50 H29          0.1250     5.7810     6.8460 ha         1 UCB       0.147000
     51 H1           2.6090    -3.1810    -2.0680 hc         1 UCB       0.045950
     52 H28          1.6730    -4.0410    -3.2620 hc         1 UCB       0.045950
     53 H18         -3.1700     4.7370     3.3140 ha         1 UCB       0.115500
     54 H11         -3.1650     1.3510     1.0700 hc         1 UCB       0.091700
     55 H14         -2.3240    -0.0580     0.4910 hc         1 UCB       0.091700
     56 H8          -3.5870     1.0220    -1.3210 hx         1 UCB       0.089700
     57 H23         -2.8170     2.5710    -1.0230 hx         1 UCB       0.089700
     58 H19         -1.0260    -4.3070    -2.6560 hc         1 UCB       0.049450
     59 H24         -1.6250    -3.1140    -1.5370 hc         1 UCB       0.049450
     60 H15          0.6590    -4.0400    -0.9940 hc         1 UCB       0.045950
     61 H34          0.5610    -2.3080    -1.0080 hc         1 UCB       0.045950
     62 H33         -0.9090    -0.3830    -4.2150 hc         1 UCB       0.054700
     63 H13          0.3200     6.1890     0.0090 ha         1 UCB       0.115500
     64 H10          1.1330    -0.5260    -2.0350 hc         1 UCB       0.046950
     65 H31          1.2160     0.1820    -3.6220 hc         1 UCB       0.046950
     66 H22         -1.9940     2.9150    -3.0600 hx         1 UCB       0.089200
     67 H26         -1.0260     1.7370    -3.9250 hx         1 UCB       0.089200
     68 H4           3.2320     7.0990     3.8970 ha         1 UCB       0.147000
     69 H291        -3.2860     1.9740    -4.8730 hc         1 UCB       0.072367
     70 H292        -3.0600     0.3240    -4.3260 hc         1 UCB       0.072367
     71 H293        -4.0450     1.4510    -3.3820 hc         1 UCB       0.072367
     72 CL1         -4.4780     4.6560     5.8350 cl         1 UCB      -0.187500
@<TRIPOS>BOND
     1     1     6 1   
     2     1     7 1   
     3     1    19 1   
     4     1    29 1   
     5     2     4 1   
     6     2     5 1   
     7     2    35 1   
     8     3    14 1   
     9     3    22 ar  
    10     3    24 ar  
    11     4    14 1   
    12     4    31 2   
    13     5    12 1   
    14     5    18 1   
    15     5    36 1   
    16     6    23 1   
    17     6    37 1   
    18     6    38 1   
    19     7    12 1   
    20     7    39 1   
    21     7    40 1   
    22     8    16 1   
    23     8    25 1   
    24     8    41 1   
    25     8    42 1   
    26     9    11 ar  
    27     9    15 ar  
    28     9    43 1   
    29    10    20 1   
    30    10    23 1   
    31    10    44 1   
    32    10    45 1   
    33    11    17 ar  
    34    11    72 1   
    35    12    46 1   
    36    12    47 1   
    37    13    27 ar  
    38    13    30 ar  
    39    13    48 1   
    40    14    28 1   
    41    14    49 1   
    42    15    26 ar  
    43    15    50 1   
    44    16    21 1   
    45    16    51 1   
    46    16    52 1   
    47    17    28 ar  
    48    17    53 1   
    49    18    19 1   
    50    18    54 1   
    51    18    55 1   
    52    19    56 1   
    53    19    57 1   
    54    20    21 1   
    55    20    58 1   
    56    20    59 1   
    57    21    60 1   
    58    21    61 1   
    59    22    30 ar  
    60    22    32 1   
    61    23    25 1   
    62    23    62 1   
    63    24    27 ar  
    64    24    63 1   
    65    25    64 1   
    66    25    65 1   
    67    26    28 ar  
    68    26    32 1   
    69    27    33 1   
    70    29    34 1   
    71    29    66 1   
    72    29    67 1   
    73    30    68 1   
    74    34    69 1   
    75    34    70 1   
    76    34    71 1   
@<TRIPOS>SUBSTRUCTURE
     1 UCB         1 TEMP              0 ****  ****    0 ROOT
