@<TRIPOS>MOLECULE
UCB
   72    76     1     0     0
SMALL
No Charge or Current Charge


@<TRIPOS>ATOM
      1 N1          -1.5130     1.2380    -1.8270 n4         1 UCB      -0.505000
      2 N2          -1.3920     2.7330     1.5460 ns         1 UCB      -0.528900
      3 C1           0.4460     5.6200     2.0640 ca         1 UCB      -0.146300
      4 C2          -0.6090     3.3800     2.4790 c          1 UCB       0.598100
      5 C3          -1.3310     1.2990     1.2300 c6         1 UCB       0.117700
      6 C4          -1.4880    -0.2630    -2.2060 c3         1 UCB       0.100600
      7 C5          -0.2400     1.6650    -1.0480 c6         1 UCB       0.101100
      8 C6           1.9220    -1.6460    -3.6520 c3         1 UCB      -0.073900
      9 C7          -1.8420     6.0100     6.6540 ca         1 UCB      -0.057500
     10 C8          -0.9600    -2.2270    -3.7410 c3         1 UCB      -0.072400
     11 C9          -2.7390     5.2580     5.8760 ca         1 UCB       0.094500
     12 C10         -0.1050     0.9940     0.3370 c6         1 UCB      -0.118900
     13 C11          2.7960     6.8650     1.1240 ca         1 UCB      -0.057500
     14 C12         -0.8120     4.9120     2.5710 c6         1 UCB      -0.021100
     15 C13         -0.6130     6.4170     6.1050 ca         1 UCB      -0.110500
     16 C14          1.8780    -3.0850    -3.0530 c3         1 UCB      -0.073900
     17 C15         -2.4090     4.9100     4.5560 ca         1 UCB      -0.073000
     18 C16         -2.6190     0.8590     0.4960 c6         1 UCB      -0.118900
     19 C17         -2.7350     1.5080    -0.9050 c6         1 UCB       0.101100
     20 C18         -0.7120    -3.3460    -2.7010 c3         1 UCB      -0.073900
     21 C19          0.7060    -3.3990    -2.0830 c3         1 UCB      -0.073900
     22 C20          1.2590     6.3610     2.9470 ca         1 UCB       0.157100
     23 C21         -0.5460    -0.7870    -3.3260 c3         1 UCB      -0.069700
     24 C22          0.8150     5.5110     0.7070 ca         1 UCB      -0.073000
     25 C23          0.9680    -0.6180    -2.9910 c3         1 UCB      -0.072400
     26 C24         -0.2810     6.0740     4.7840 ca         1 UCB       0.157100
     27 C25          1.9860     6.1310     0.2410 ca         1 UCB       0.094500
     28 C26         -1.1770     5.3140     4.0020 ca         1 UCB      -0.146300
     29 C27         -1.6300     2.1120    -3.0870 c3         1 UCB       0.101600
     30 C28          2.4300     6.9800     2.4770 ca         1 UCB      -0.110500
     31 O1           0.2120     2.7810     3.1610 o          1 UCB      -0.558100
     32 O2           0.9230     6.5000     4.2730 os         1 UCB      -0.211200
     33 Cl2          2.4400     5.9810    -1.4510 cl         1 UCB      -0.187500
     34 C29         -2.8830     1.9290    -3.9660 c3         1 UCB      -0.122100
     35 H25         -2.0550     3.3080     1.0410 hn         1 UCB       0.310500
     36 H32         -1.2430     0.7370     2.1740 h1         1 UCB       0.108700
     37 H2          -1.2820    -0.8270    -1.2950 hx         1 UCB       0.088700
     38 H12         -2.5070    -0.5090    -2.5100 hx         1 UCB       0.088700
     39 H7          -0.3030     2.7510    -0.9310 hx         1 UCB       0.089700
     40 H16          0.6240     1.4570    -1.6820 hx         1 UCB       0.089700
     41 H3           2.9490    -1.2710    -3.5620 hc         1 UCB       0.049450
     42 H21          1.7210    -1.6860    -4.7300 hc         1 UCB       0.049450
     43 H5          -2.1000     6.2760     7.6760 ha         1 UCB       0.144500
     44 H9          -0.4570    -2.4960    -4.6770 hc         1 UCB       0.046950
     45 H27         -2.0280    -2.2240    -3.9900 hc         1 UCB       0.046950
     46 H6           0.0090    -0.0910     0.2220 hc         1 UCB       0.091700
     47 H20          0.8140     1.3440     0.8250 hc         1 UCB       0.091700
     48 H30          3.7020     7.3430     0.7600 ha         1 UCB       0.144500
     49 H17         -1.6440     5.1860     1.9080 hc         1 UCB       0.066700
     50 H29          0.0820     7.0030     6.7020 ha         1 UCB       0.147000
     51 H1           2.8150    -3.2560    -2.5080 hc         1 UCB       0.045950
     52 H28          1.8710    -3.8130    -3.8730 hc         1 UCB       0.045950
     53 H18         -3.1100     4.3240     3.9660 ha         1 UCB       0.115500
     54 H11         -3.5000     1.1180     1.0980 hc         1 UCB       0.091700
     55 H14         -2.6310    -0.2350     0.3980 hc         1 UCB       0.091700
     56 H8          -3.6210     1.1420    -1.4340 hx         1 UCB       0.089700
     57 H23         -2.8240     2.5950    -0.8200 hx         1 UCB       0.089700
     58 H19         -0.9160    -4.3080    -3.1870 hc         1 UCB       0.049450
     59 H24         -1.4440    -3.2550    -1.8890 hc         1 UCB       0.049450
     60 H15          0.8590    -4.4040    -1.6710 hc         1 UCB       0.045950
     61 H34          0.7520    -2.7270    -1.2180 hc         1 UCB       0.045950
     62 H33         -0.7310    -0.1810    -4.2190 hc         1 UCB       0.054700
     63 H13          0.1990     4.9440     0.0140 ha         1 UCB       0.115500
     64 H10          1.1280    -0.6380    -1.9080 hc         1 UCB       0.046950
     65 H31          1.2750     0.3830    -3.3160 hc         1 UCB       0.046950
     66 H22         -1.5880     3.1550    -2.7640 hx         1 UCB       0.089200
     67 H26         -0.7440     1.9230    -3.6980 hx         1 UCB       0.089200
     68 H4           3.0520     7.5490     3.1630 ha         1 UCB       0.147000
     69 H291        -2.8240     2.5840    -4.8430 hc         1 UCB       0.072367
     70 H292        -2.9710     0.8960    -4.3190 hc         1 UCB       0.072367
     71 H293        -3.7920     2.1870    -3.4120 hc         1 UCB       0.072367
     72 Cl1         -4.2770     4.7470     6.5590 cl         1 UCB      -0.187500
@<TRIPOS>BOND
     1     1     6 1   
     2     1     7 1   
     3     1    19 1   
     4     1    29 1   
     5     2     4 1   
     6     2     5 1   
     7     2    35 1   
     8     3    14 1   
     9     3    22 ar  
    10     3    24 ar  
    11     4    14 1   
    12     4    31 2   
    13     5    12 1   
    14     5    18 1   
    15     5    36 1   
    16     6    23 1   
    17     6    37 1   
    18     6    38 1   
    19     7    12 1   
    20     7    39 1   
    21     7    40 1   
    22     8    16 1   
    23     8    25 1   
    24     8    41 1   
    25     8    42 1   
    26     9    11 ar  
    27     9    15 ar  
    28     9    43 1   
    29    10    20 1   
    30    10    23 1   
    31    10    44 1   
    32    10    45 1   
    33    11    17 ar  
    34    11    72 1   
    35    12    46 1   
    36    12    47 1   
    37    13    27 ar  
    38    13    30 ar  
    39    13    48 1   
    40    14    28 1   
    41    14    49 1   
    42    15    26 ar  
    43    15    50 1   
    44    16    21 1   
    45    16    51 1   
    46    16    52 1   
    47    17    28 ar  
    48    17    53 1   
    49    18    19 1   
    50    18    54 1   
    51    18    55 1   
    52    19    56 1   
    53    19    57 1   
    54    20    21 1   
    55    20    58 1   
    56    20    59 1   
    57    21    60 1   
    58    21    61 1   
    59    22    30 ar  
    60    22    32 1   
    61    23    25 1   
    62    23    62 1   
    63    24    27 ar  
    64    24    63 1   
    65    25    64 1   
    66    25    65 1   
    67    26    28 ar  
    68    26    32 1   
    69    27    33 1   
    70    29    34 1   
    71    29    66 1   
    72    29    67 1   
    73    30    68 1   
    74    34    69 1   
    75    34    70 1   
    76    34    71 1   
@<TRIPOS>SUBSTRUCTURE
     1 UCB         1 TEMP              0 ****  ****    0 ROOT
