@<TRIPOS>MOLECULE
UCD
   46    47     1     0     0
SMALL
No Charge or Current Charge


@<TRIPOS>ATOM
      1 CAA          2.7280     4.2700     0.3190 c3         1 UCD      -0.182100
      2 CAP          2.5100     2.9420    -0.3970 c          1 UCD       0.622100
      3 OAB          2.2470     2.8730    -1.5890 o          1 UCD      -0.593100
      4 N2           2.6540     1.8300     0.4000 ns         1 UCD      -0.493900
      5 C2           2.4210     0.4250    -0.0290 c6         1 UCD       0.073700
      6 C1           3.4480    -0.5610     0.6080 c6         1 UCD       0.394300
      7 O1           4.7680    -0.2760     0.1950 oh         1 UCD      -0.626000
      8 O5           3.2060    -1.8960     0.1640 os         1 UCD      -0.473000
      9 C5           1.9070    -2.4030     0.5620 c6         1 UCD       0.146300
     10 C6           1.8140    -3.9180     0.1820 c3         1 UCD       0.163600
     11 O6           2.8300    -4.7250     0.8120 oh         1 UCD      -0.717000
     12 C4           0.7650    -1.5450    -0.0730 c6         1 UCD       0.120300
     13 O4           0.7130    -1.6750    -1.5130 oh         1 UCD      -0.693000
     14 C3           0.9740    -0.0440     0.3270 c6         1 UCD       0.173300
     15 O3           0.0120     0.8280    -0.3150 os         1 UCD      -0.403000
     16 CAX         -1.3490     0.7260     0.1520 c6         1 UCD       0.389300
     17 OAM         -2.0160    -0.3150    -0.5980 os         1 UCD      -0.360100
     18 CAR         -3.4100    -0.3760    -0.5950 ce         1 UCD       0.056900
     19 CAQ         -4.0320    -1.6370    -1.2190 c          1 UCD       0.727200
     20 OAE         -3.2910    -2.5010    -1.6760 o          1 UCD      -0.698000
     21 OAC         -5.2540    -1.7470    -1.2400 o          1 UCD      -0.698000
     22 CAJ         -4.1550     0.6330    -0.0610 c2         1 UCD      -0.421200
     23 CAS         -3.5390     1.8710     0.5410 c6         1 UCD       0.188500
     24 OAF         -4.3650     2.9950     0.2450 oh         1 UCD      -0.673000
     25 CAU         -2.1020     2.0830    -0.0070 c6         1 UCD       0.145300
     26 OAH         -1.4640     3.1980     0.6680 oh         1 UCD      -0.721000
     27 HAA1         2.6260     5.1320    -0.3500 hc         1 UCD       0.055033
     28 HAA2         2.0370     4.3330     1.1670 hc         1 UCD       0.055033
     29 HAA3         3.7050     4.2540     0.8140 hc         1 UCD       0.055033
     30 HN2          2.9000     2.0030     1.3670 hn         1 UCD       0.294500
     31 H2           2.5420     0.3610    -1.1190 h1         1 UCD       0.135700
     32 H1           3.3870    -0.5220     1.7060 h2         1 UCD      -0.001300
     33 HO1          5.1430    -1.1640     0.0220 ho         1 UCD       0.445000
     34 H5           1.8290    -2.3350     1.6580 h1         1 UCD       0.046700
     35 H61          0.8170    -4.2800     0.4680 h1         1 UCD       0.036200
     36 H62          1.8900    -4.0060    -0.9110 h1         1 UCD       0.036200
     37 HO6          2.7460    -5.6340     0.4400 ho         1 UCD       0.496000
     38 H4          -0.1820    -1.8900     0.3700 h1         1 UCD       0.099700
     39 HO4         -0.0490    -1.1200    -1.8040 ho         1 UCD       0.502000
     40 H3           0.8490     0.0490     1.4160 h1         1 UCD       0.032700
     41 HAX         -1.3520     0.4590     1.2190 h2         1 UCD       0.018700
     42 HAJ         -5.2440     0.5710    -0.0570 ha         1 UCD       0.208000
     43 HAS         -3.4820     1.7300     1.6310 h1         1 UCD       0.016700
     44 HAF         -5.2440     2.8020     0.6370 ho         1 UCD       0.438000
     45 HAU         -2.1760     2.2900    -1.0850 h1         1 UCD       0.076700
     46 HAH         -2.1650     3.8910     0.7240 ho         1 UCD       0.506000
@<TRIPOS>BOND
     1     1     2 1   
     2     1    27 1   
     3     1    28 1   
     4     1    29 1   
     5     2     3 2   
     6     2     4 1   
     7     4     5 1   
     8     4    30 1   
     9     5     6 1   
    10     5    14 1   
    11     5    31 1   
    12     6     7 1   
    13     6     8 1   
    14     6    32 1   
    15     7    33 1   
    16     8     9 1   
    17     9    10 1   
    18     9    12 1   
    19     9    34 1   
    20    10    11 1   
    21    10    35 1   
    22    10    36 1   
    23    11    37 1   
    24    12    13 1   
    25    12    14 1   
    26    12    38 1   
    27    13    39 1   
    28    14    15 1   
    29    14    40 1   
    30    15    16 1   
    31    16    17 1   
    32    16    25 1   
    33    16    41 1   
    34    17    18 1   
    35    18    19 1   
    36    18    22 2   
    37    19    20 1   
    38    19    21 1   
    39    22    23 1   
    40    22    42 1   
    41    23    24 1   
    42    23    25 1   
    43    23    43 1   
    44    24    44 1   
    45    25    26 1   
    46    25    45 1   
    47    26    46 1   
@<TRIPOS>SUBSTRUCTURE
     1 UCD         1 TEMP              0 ****  ****    0 ROOT
