@<TRIPOS>MOLECULE
UCD
   46    47     1     0     0
SMALL
abcg2


@<TRIPOS>ATOM
      1 CAA          2.1480     3.9990     0.9420 c3         1 UCD      -0.182100
      2 CAP          2.3650     2.8160     0.0350 c          1 UCD       0.622100
      3 OAB          2.5740     2.9420    -1.1630 o          1 UCD      -0.593100
      4 N2           2.2940     1.6190     0.6520 ns         1 UCD      -0.493900
      5 C2           2.2530     0.3580    -0.0390 c6         1 UCD       0.073700
      6 C1           3.2630    -0.6270     0.5550 c6         1 UCD       0.394300
      7 O1           4.5320    -0.1360     0.3510 oh         1 UCD      -0.626000
      8 O5           3.1550    -1.8720    -0.0870 os         1 UCD      -0.473000
      9 C5           1.8920    -2.4840     0.0770 c6         1 UCD       0.146300
     10 C6           1.9580    -3.8790    -0.5050 c3         1 UCD       0.163600
     11 O6           2.8440    -4.6540     0.2670 oh         1 UCD      -0.717000
     12 C4           0.7990    -1.6350    -0.5760 c6         1 UCD       0.120300
     13 O4           0.9930    -1.4980    -1.9630 oh         1 UCD      -0.693000
     14 C3           0.8500    -0.2440     0.0530 c6         1 UCD       0.173300
     15 O3          -0.0470     0.6580    -0.5540 os         1 UCD      -0.403000
     16 CAX         -1.2440     0.8400     0.0920 c6         1 UCD       0.389300
     17 OAM         -2.0230    -0.3210    -0.1220 os         1 UCD      -0.360100
     18 CAR         -3.3270    -0.2550     0.2390 ce         1 UCD       0.056900
     19 CAQ         -3.9960    -1.6200     0.3510 c          1 UCD       0.727200
     20 OAE         -3.2690    -2.6040     0.1380 o          1 UCD      -0.698000
     21 OAC         -5.2050    -1.6110     0.6440 o          1 UCD      -0.698000
     22 CAJ         -3.9450     0.9050     0.4600 c2         1 UCD      -0.421200
     23 CAS         -3.2630     2.2320     0.2990 c6         1 UCD       0.188500
     24 OAF         -4.0500     3.1610    -0.4230 oh         1 UCD      -0.673000
     25 CAU         -1.9560     2.0620    -0.4670 c6         1 UCD       0.145300
     26 OAH         -1.1070     3.1700    -0.3320 oh         1 UCD      -0.721000
     27 HAA1         2.6910     4.8660     0.5700 hc         1 UCD       0.055033
     28 HAA2         1.0840     4.2410     0.9450 hc         1 UCD       0.055033
     29 HAA3         2.4490     3.8080     1.9710 hc         1 UCD       0.055033
     30 HN2          2.0730     1.6120     1.6360 hn         1 UCD       0.294500
     31 H2           2.5110     0.5350    -1.0850 h1         1 UCD       0.135700
     32 H1           3.0460    -0.7580     1.6310 h2         1 UCD      -0.001300
     33 HO1          5.1410    -0.5590     0.9660 ho         1 UCD       0.445000
     34 H5           1.6470    -2.5710     1.1490 h1         1 UCD       0.046700
     35 H61          0.9420    -4.2950    -0.4970 h1         1 UCD       0.036200
     36 H62          2.2770    -3.8230    -1.5530 h1         1 UCD       0.036200
     37 HO6          2.9050    -5.5240    -0.1370 ho         1 UCD       0.496000
     38 H4          -0.1740    -2.0840    -0.3470 h1         1 UCD       0.099700
     39 HO4          0.5600    -2.2280    -2.4130 ho         1 UCD       0.502000
     40 H3           0.6020    -0.3620     1.1190 h1         1 UCD       0.032700
     41 HAX         -1.0960     0.9620     1.1800 h2         1 UCD       0.018700
     42 HAJ         -4.9800     0.8890     0.7730 ha         1 UCD       0.208000
     43 HAS         -3.0220     2.6440     1.2900 h1         1 UCD       0.016700
     44 HAF         -4.7430     3.4870     0.1590 ho         1 UCD       0.438000
     45 HAU         -2.1970     1.8640    -1.5240 h1         1 UCD       0.076700
     46 HAH         -1.6070     3.9550    -0.5770 ho         1 UCD       0.506000
@<TRIPOS>BOND
     1     1     2 1   
     2     1    27 1   
     3     1    28 1   
     4     1    29 1   
     5     2     3 2   
     6     2     4 1   
     7     4     5 1   
     8     4    30 1   
     9     5     6 1   
    10     5    14 1   
    11     5    31 1   
    12     6     7 1   
    13     6     8 1   
    14     6    32 1   
    15     7    33 1   
    16     8     9 1   
    17     9    10 1   
    18     9    12 1   
    19     9    34 1   
    20    10    11 1   
    21    10    35 1   
    22    10    36 1   
    23    11    37 1   
    24    12    13 1   
    25    12    14 1   
    26    12    38 1   
    27    13    39 1   
    28    14    15 1   
    29    14    40 1   
    30    15    16 1   
    31    16    17 1   
    32    16    25 1   
    33    16    41 1   
    34    17    18 1   
    35    18    19 1   
    36    18    22 2   
    37    19    20 1   
    38    19    21 1   
    39    22    23 1   
    40    22    42 1   
    41    23    24 1   
    42    23    25 1   
    43    23    43 1   
    44    24    44 1   
    45    25    26 1   
    46    25    45 1   
    47    26    46 1   
@<TRIPOS>SUBSTRUCTURE
     1 UCD         1 TEMP              0 ****  ****    0 ROOT
