@<TRIPOS>MOLECULE
UCE
   77    82     1     0     0
SMALL
No Charge or Current Charge


@<TRIPOS>ATOM
      1 C10          3.5450     2.2080     9.9690 ca         1 UCE      -0.107000
      2 C13          3.1080     1.4630    13.7130 cp         1 UCE       0.419500
      3 C15          1.2280     0.7240    14.8920 ca         1 UCE       0.370900
      4 C20          3.8850     1.4320    14.9760 cq         1 UCE      -0.076000
      5 C21          5.3790     1.6300    15.0180 cq         1 UCE      -0.036000
      6 C22          5.9850     2.3390    16.0780 ca         1 UCE      -0.095500
      7 C24          8.1830     1.9970    15.0880 ca         1 UCE      -0.106000
      8 C26          6.1990     1.1020    13.9980 ca         1 UCE      -0.095500
      9 C28          4.8520     3.8180    11.2270 ca         1 UCE      -0.107000
     10 C02         -0.4340     5.6800     5.1120 c          1 UCE       0.594000
     11 C04          1.7280     5.6820     6.4590 c6         1 UCE       0.133700
     12 C05          1.7910     6.1430     7.9390 c6         1 UCE      -0.089400
     13 C06          3.1000     5.6990     8.6460 c6         1 UCE       0.170800
     14 C09          4.4150     3.3120     9.9890 ca         1 UCE      -0.081300
     15 C11          3.1200     1.6130    11.1690 ca         1 UCE      -0.082500
     16 C12          3.5610     2.1000    12.4280 cp         1 UCE      -0.145500
     17 C16          1.8860     0.7540    16.1360 ca         1 UCE      -0.141300
     18 C19          3.2490     1.0970    16.1840 ca         1 UCE      -0.071000
     19 C23          7.3790     2.5220    16.1110 ca         1 UCE      -0.112500
     20 C25          7.5920     1.2870    14.0330 ca         1 UCE      -0.112500
     21 C27          4.4290     3.2240    12.4270 ca         1 UCE      -0.082500
     22 C29          4.2020     5.0090     6.5530 c6         1 UCE       0.170800
     23 C30          3.1130     5.8010     5.7780 c6         1 UCE      -0.089400
     24 C31          0.6970     7.7100     5.2150 ca         1 UCE       0.039600
     25 C32          1.4310     8.8270     5.6390 ca         1 UCE      -0.176000
     26 C33          1.1280    10.0910     5.0800 ca         1 UCE      -0.015000
     27 C36          2.9880    13.3710     5.8970 c3         1 UCE      -0.158400
     28 C37          4.1330    13.7880     4.9470 c3         1 UCE      -0.077100
     29 C39          0.0500    10.2140     4.1570 ca         1 UCE      -0.133000
     30 C40         -0.7420     9.0960     3.8150 ca         1 UCE      -0.085000
     31 C41         -0.3960     7.8680     4.3810 ca         1 UCE      -0.024400
     32 N03          0.6480     6.3590     5.7020 n          1 UCE      -0.297000
     33 N07          3.7700     4.5880     7.9170 n3         1 UCE      -0.728600
     34 N14          1.8200     1.0460    13.7190 nb         1 UCE      -0.672000
     35 N34          1.9290    11.1890     5.4990 ns         1 UCE      -0.151000
     36 N42         -1.0300     6.6250     4.3300 ns         1 UCE      -0.500600
     37 O18          1.2610    -1.0310    17.6350 oh         1 UCE      -0.656000
     38 O38          1.1250    13.0600     4.3970 o          1 UCE      -0.577100
     39 H1           3.1930     1.8140     9.0180 ha         1 UCE       0.120000
     40 H2           0.1820     0.4250    14.8310 h4         1 UCE       0.038100
     41 H3           1.5430     0.9410    18.2470 h1         1 UCE       0.027200
     42 H4           0.0790     0.6510    17.2930 h1         1 UCE       0.027200
     43 H5           5.3840     2.7690    16.8760 ha         1 UCE       0.117000
     44 H6           9.2620     2.1400    15.1140 ha         1 UCE       0.113000
     45 H7           5.7670     0.5400    13.1740 ha         1 UCE       0.117000
     46 H8           5.5180     4.6780    11.2610 ha         1 UCE       0.120000
     47 H9           1.4920     4.6070     6.4770 h1         1 UCE       0.100700
     48 H10          1.6930     7.2320     8.0210 hc         1 UCE       0.052700
     49 H11          0.9290     5.7220     8.4730 hc         1 UCE       0.052700
     50 H12          3.7810     6.5610     8.7120 h1         1 UCE       0.036200
     51 H13          2.8540     5.4100     9.6790 h1         1 UCE       0.036200
     52 H14          5.3410     3.1710     8.0700 h1         1 UCE       0.037200
     53 H15          5.6530     4.6980     8.8960 h1         1 UCE       0.037200
     54 H16          2.4490     0.7580    11.1230 ha         1 UCE       0.122500
     55 H17          3.7880     1.0540    17.1280 ha         1 UCE       0.119000
     56 H18          7.8340     3.0750    16.9290 ha         1 UCE       0.113500
     57 H19          8.2130     0.8760    13.2400 ha         1 UCE       0.113500
     58 H20          4.7690     3.6490    13.3680 ha         1 UCE       0.122500
     59 H21          4.4700     4.1170     5.9670 h1         1 UCE       0.036200
     60 H22          5.1090     5.6300     6.6110 h1         1 UCE       0.036200
     61 H23          3.0590     5.4380     4.7430 hc         1 UCE       0.052700
     62 H24          3.4180     6.8520     5.7200 hc         1 UCE       0.052700
     63 H25          2.2260     8.7280     6.3720 ha         1 UCE       0.118000
     64 H26          3.4210    12.7920     6.7220 hc         1 UCE       0.056200
     65 H27          2.5200    14.2810     6.2900 hc         1 UCE       0.056200
     66 H28          4.8820    14.3810     5.4870 hc         1 UCE       0.044700
     67 H29          4.6320    12.9060     4.5280 hc         1 UCE       0.044700
     68 H30          3.7500    14.3950     4.1170 hc         1 UCE       0.044700
     69 H31         -0.2120    11.1720     3.7200 ha         1 UCE       0.152000
     70 H32         -1.6000     9.1920     3.1540 ha         1 UCE       0.124000
     71 H34          2.6490    10.9340     6.1630 hn         1 UCE       0.146000
     72 H35         -1.8550     6.4220     3.7740 hn         1 UCE       0.469000
     73 H36          0.7780    -1.2210    18.4690 ho         1 UCE       0.449000
     74 C17          1.1360     0.3740    17.3990 c3         1 UCE       0.217900
     75 C08          4.8720     3.9550     8.6810 c3         1 UCE       0.219100
     76 O01         -0.7620     4.5120     5.2390 o          1 UCE      -0.564000
     77 C35          1.9200    12.5390     5.1710 c          1 UCE       0.606100
@<TRIPOS>BOND
     1     1    14 ar  
     2     1    15 ar  
     3     1    39 1   
     4     2     4 1   
     5     2    16 1   
     6     2    34 ar  
     7     3    17 ar  
     8     3    34 ar  
     9     3    40 1   
    10     4     5 1   
    11     4    18 2   
    12     5     6 1   
    13     5     8 2   
    14     6    19 ar  
    15     6    43 1   
    16     7    19 ar  
    17     7    20 ar  
    18     7    44 1   
    19     8    20 ar  
    20     8    45 1   
    21     9    14 ar  
    22     9    21 ar  
    23     9    46 1   
    24    10    32 1   
    25    10    36 1   
    26    10    76 2   
    27    11    12 1   
    28    11    23 1   
    29    11    32 1   
    30    11    47 1   
    31    12    13 1   
    32    12    48 1   
    33    12    49 1   
    34    13    33 1   
    35    13    50 1   
    36    13    51 1   
    37    14    75 1   
    38    15    16 ar  
    39    15    54 1   
    40    16    21 ar  
    41    17    18 ar  
    42    17    74 1   
    43    18    55 1   
    44    19    56 1   
    45    20    57 1   
    46    21    58 1   
    47    22    23 1   
    48    22    33 1   
    49    22    59 1   
    50    22    60 1   
    51    23    61 1   
    52    23    62 1   
    53    24    25 ar  
    54    24    31 ar  
    55    24    32 1   
    56    25    26 ar  
    57    25    63 1   
    58    26    29 ar  
    59    26    35 1   
    60    27    28 1   
    61    27    64 1   
    62    27    65 1   
    63    27    77 1   
    64    28    66 1   
    65    28    67 1   
    66    28    68 1   
    67    29    30 ar  
    68    29    69 1   
    69    30    31 ar  
    70    30    70 1   
    71    31    36 1   
    72    33    75 1   
    73    35    71 1   
    74    35    77 1   
    75    36    72 1   
    76    37    73 1   
    77    37    74 1   
    78    38    77 2   
    79    41    74 1   
    80    42    74 1   
    81    52    75 1   
    82    53    75 1   
@<TRIPOS>SUBSTRUCTURE
     1 UCE         1 TEMP              0 ****  ****    0 ROOT
