@<TRIPOS>MOLECULE
UCE
   77    82     1     0     0
SMALL
bcc


@<TRIPOS>ATOM
      1 C10          3.3950     2.8740    10.3070 ca         1 UCE      -0.125000
      2 C13          3.0100     2.0480    13.9640 cp         1 UCE       0.484800
      3 C15          1.1340     1.6350    15.2290 ca         1 UCE       0.436200
      4 C20          3.8440     1.4930    14.9480 cq         1 UCE      -0.141300
      5 C21          5.3020     1.3160    14.7750 cq         1 UCE      -0.036000
      6 C22          6.1880     1.7940    15.7390 ca         1 UCE      -0.113500
      7 C24          8.0560     0.9270    14.4940 ca         1 UCE      -0.124000
      8 C26          5.8130     0.6320    13.6720 ca         1 UCE      -0.113500
      9 C28          5.0660     4.0740    11.5250 ca         1 UCE      -0.125000
     10 C02          0.2120     5.3140     4.8020 c          1 UCE       0.803500
     11 C04          2.1220     5.5250     6.3780 c6         1 UCE       0.133700
     12 C05          1.9580     6.0340     7.8180 c6         1 UCE      -0.089400
     13 C06          3.2800     5.9180     8.5760 c6         1 UCE       0.170800
     14 C09          4.4800     3.7480    10.3060 ca         1 UCE      -0.081300
     15 C11          2.9220     2.3320    11.4910 ca         1 UCE      -0.100500
     16 C12          3.5330     2.6320    12.7080 cp         1 UCE      -0.145500
     17 C16          1.8670     1.1160    16.2870 ca         1 UCE      -0.206600
     18 C19          3.2430     1.0430    16.1160 ca         1 UCE      -0.089000
     19 C23          7.5570     1.6040    15.5980 ca         1 UCE      -0.130500
     20 C25          7.1790     0.4390    13.5340 ca         1 UCE      -0.130500
     21 C27          4.6050     3.5200    12.7100 ca         1 UCE      -0.100500
     22 C29          4.5300     4.9520     6.7700 c6         1 UCE       0.170800
     23 C30          3.5510     5.7370     5.8890 c6         1 UCE      -0.089400
     24 C31          0.9650     7.4200     5.1370 ca         1 UCE       0.039600
     25 C32          1.6200     8.5710     5.5280 ca         1 UCE      -0.194000
     26 C33          1.2020     9.7980     4.9950 ca         1 UCE       0.077600
     27 C36          2.6600    13.1640     5.8880 c3         1 UCE      -0.158400
     28 C37          2.7730    14.5490     5.2760 c3         1 UCE      -0.077100
     29 C39          0.1430     9.8450     4.0850 ca         1 UCE      -0.151000
     30 C40         -0.5110     8.6770     3.6980 ca         1 UCE      -0.103000
     31 C41         -0.0950     7.4760     4.2260 ca         1 UCE      -0.024400
     32 N03          1.1350     6.0910     5.4780 n          1 UCE      -0.364000
     33 N07          3.9990     4.7470     8.1100 n3         1 UCE      -0.728600
     34 N14          1.6900     2.0880    14.1130 nb         1 UCE      -0.672000
     35 N34          1.9090    10.9270     5.4330 ns         1 UCE      -0.477100
     36 N42         -0.5280     6.1810     4.0450 ns         1 UCE      -0.454100
     37 O18         -0.1390     0.4720    17.3900 oh         1 UCE      -0.593800
     38 O38          0.9160    12.6450     4.3180 o          1 UCE      -0.577100
     39 H1           2.9130     2.6200     9.3710 ha         1 UCE       0.138000
     40 H2           0.0540     1.6950    15.2780 h4         1 UCE       0.038100
     41 H3           1.7360    -0.2880    17.8740 h1         1 UCE       0.027200
     42 H4           1.4610     1.3790    18.3530 h1         1 UCE       0.027200
     43 H5           5.8080     2.3320    16.5990 ha         1 UCE       0.135000
     44 H6           9.1220     0.7780    14.3840 ha         1 UCE       0.131000
     45 H7           5.1380     0.2410    12.9210 ha         1 UCE       0.135000
     46 H8           5.8930     4.7730    11.5520 ha         1 UCE       0.138000
     47 H9           1.9270     4.4520     6.3710 h1         1 UCE       0.100700
     48 H10          1.6210     7.0720     7.8380 hc         1 UCE       0.052700
     49 H11          1.1850     5.4460     8.3150 hc         1 UCE       0.052700
     50 H12          3.8810     6.8360     8.4620 h1         1 UCE       0.036200
     51 H13          3.0790     5.8190     9.6440 h1         1 UCE       0.036200
     52 H14          5.5930     3.5060     8.5130 h1         1 UCE       0.037200
     53 H15          5.7630     5.0930     9.2380 h1         1 UCE       0.037200
     54 H16          2.0780     1.6550    11.4690 ha         1 UCE       0.140500
     55 H17          3.8570     0.5980    16.8910 ha         1 UCE       0.137000
     56 H18          8.2320     1.9890    16.3520 ha         1 UCE       0.131500
     57 H19          7.5590    -0.0980    12.6740 ha         1 UCE       0.131500
     58 H20          5.0780     3.7990    13.6430 ha         1 UCE       0.140500
     59 H21          4.7320     3.9710     6.3300 h1         1 UCE       0.036200
     60 H22          5.4910     5.4920     6.7940 h1         1 UCE       0.036200
     61 H23          3.6490     5.4140     4.8520 hc         1 UCE       0.052700
     62 H24          3.8050     6.7980     5.9110 hc         1 UCE       0.052700
     63 H25          2.4400     8.5430     6.2340 ha         1 UCE       0.136000
     64 H26          3.6480    12.7060     5.9800 hc         1 UCE       0.056200
     65 H27          2.2740    13.2370     6.9100 hc         1 UCE       0.056200
     66 H28          3.4430    15.1650     5.8750 hc         1 UCE       0.044700
     67 H29          3.1760    14.5100     4.2640 hc         1 UCE       0.044700
     68 H30          1.8090    15.0530     5.2350 hc         1 UCE       0.044700
     69 H31         -0.1830    10.7830     3.6700 ha         1 UCE       0.170000
     70 H32         -1.3310     8.7250     2.9930 ha         1 UCE       0.142000
     71 H34          2.6410    10.7320     6.1000 hn         1 UCE       0.312500
     72 H35         -1.2840     5.8860     3.4480 hn         1 UCE       0.355500
     73 H36         -0.5270     0.2520    18.2410 ho         1 UCE       0.410000
     74 C17          1.2420     0.6440    17.5680 c3         1 UCE       0.194700
     75 C08          5.0300     4.2990     9.0170 c3         1 UCE       0.219100
     76 O01          0.0870     4.1050     4.8690 o          1 UCE      -0.639500
     77 C35          1.7380    12.2380     5.1190 c          1 UCE       0.673100
@<TRIPOS>BOND
     1     1    14 ar  
     2     1    15 ar  
     3     1    39 1   
     4     2     4 1   
     5     2    16 1   
     6     2    34 ar  
     7     3    17 ar  
     8     3    34 ar  
     9     3    40 1   
    10     4     5 1   
    11     4    18 2   
    12     5     6 1   
    13     5     8 2   
    14     6    19 ar  
    15     6    43 1   
    16     7    19 ar  
    17     7    20 ar  
    18     7    44 1   
    19     8    20 ar  
    20     8    45 1   
    21     9    14 ar  
    22     9    21 ar  
    23     9    46 1   
    24    10    32 1   
    25    10    36 1   
    26    10    76 2   
    27    11    12 1   
    28    11    23 1   
    29    11    32 1   
    30    11    47 1   
    31    12    13 1   
    32    12    48 1   
    33    12    49 1   
    34    13    33 1   
    35    13    50 1   
    36    13    51 1   
    37    14    75 1   
    38    15    16 ar  
    39    15    54 1   
    40    16    21 ar  
    41    17    18 ar  
    42    17    74 1   
    43    18    55 1   
    44    19    56 1   
    45    20    57 1   
    46    21    58 1   
    47    22    23 1   
    48    22    33 1   
    49    22    59 1   
    50    22    60 1   
    51    23    61 1   
    52    23    62 1   
    53    24    25 ar  
    54    24    31 ar  
    55    24    32 1   
    56    25    26 ar  
    57    25    63 1   
    58    26    29 ar  
    59    26    35 1   
    60    27    28 1   
    61    27    64 1   
    62    27    65 1   
    63    27    77 1   
    64    28    66 1   
    65    28    67 1   
    66    28    68 1   
    67    29    30 ar  
    68    29    69 1   
    69    30    31 ar  
    70    30    70 1   
    71    31    36 1   
    72    33    75 1   
    73    35    71 1   
    74    35    77 1   
    75    36    72 1   
    76    37    73 1   
    77    37    74 1   
    78    38    77 2   
    79    41    74 1   
    80    42    74 1   
    81    52    75 1   
    82    53    75 1   
@<TRIPOS>SUBSTRUCTURE
     1 UCE         1 TEMP              0 ****  ****    0 ROOT
