@<TRIPOS>MOLECULE
UCF
   81    84     1     0     0
SMALL
No Charge or Current Charge


@<TRIPOS>ATOM
      1 CAJ        -15.7660    -0.8050     6.1410 c3         1 UCF       0.148900
      2 OAI        -15.2300     0.4530     5.6930 os         1 UCF      -0.337100
      3 CAB        -14.1760     0.5360     4.7970 ca         1 UCF       0.098100
      4 CAC        -13.5860    -0.6200     4.2350 ca         1 UCF      -0.169000
      5 CAA        -13.6820     1.8160     4.4460 ca         1 UCF       0.101100
      6 OAH        -14.2740     2.9350     5.0090 os         1 UCF      -0.338100
      7 CAK        -13.8340     4.2730     4.7150 c3         1 UCF       0.146900
      8 CAF        -12.6040     1.9220     3.5390 ca         1 UCF      -0.159000
      9 CAE        -12.0240     0.7660     2.9900 ca         1 UCF      -0.088000
     10 CAD        -12.5070    -0.5090     3.3370 ca         1 UCF      -0.084300
     11 CAG        -11.8540    -1.7610     2.7550 c3         1 UCF      -0.024100
     12 CAL        -11.3120    -2.7280     3.8350 c3         1 UCF      -0.066400
     13 CAM        -10.3620    -2.0540     4.8640 c3         1 UCF       0.228600
     14 CAO         -9.1490    -1.3980     4.2020 ca         1 UCF      -0.097300
     15 CAP         -8.9550    -0.0060     4.3090 ca         1 UCF      -0.139000
     16 CAT         -8.2170    -2.1630     3.4710 ca         1 UCF      -0.167000
     17 CAS         -7.1160    -1.5460     2.8560 ca         1 UCF      -0.088000
     18 CAR         -6.9350    -0.1570     2.9620 ca         1 UCF      -0.166000
     19 CAQ         -7.8610     0.6210     3.6900 ca         1 UCF       0.191100
     20 OAU         -7.7360     1.9910     3.8400 os         1 UCF      -0.340100
     21 CAV         -6.7110     2.7670     3.1650 c3         1 UCF       0.008600
     22 CAW         -6.9180     2.9080     1.6240 c          1 UCF       0.693000
     23 OAY         -5.9960     3.3840     0.9750 o          1 UCF      -0.719500
     24 OAX         -7.9720     2.5490     1.1160 o          1 UCF      -0.719500
     25 OAN         -9.8760    -3.0650     5.7670 os         1 UCF      -0.457100
     26 C          -10.7130    -3.5600     6.7380 c          1 UCF       0.579100
     27 O          -11.8060    -3.0670     6.9910 o          1 UCF      -0.479000
     28 CA         -10.0870    -4.7040     7.6000 c6         1 UCF       0.041700
     29 CB          -8.9490    -5.4770     6.8680 c6         1 UCF      -0.070400
     30 CBD         -9.5160    -6.3520     5.7280 c6         1 UCF      -0.079400
     31 CBE        -10.5890    -7.3110     6.2880 c6         1 UCF      -0.089400
     32 CBF        -11.6780    -6.5570     7.0900 c6         1 UCF       0.097000
     33 N          -11.1010    -5.6720     8.1510 n          1 UCF      -0.390800
     34 CBH        -11.8260    -5.3280     9.3250 c          1 UCF       0.614100
     35 OBI        -11.6720    -4.2280     9.8440 o          1 UCF      -0.612100
     36 CBJ        -12.7530    -6.3820     9.9960 c3         1 UCF      -0.066400
     37 CBL        -14.2410    -6.0460     9.7040 c3         1 UCF      -0.072400
     38 CBR        -15.2310    -7.1340    10.1740 c3         1 UCF      -0.090100
     39 CBK        -12.4810    -6.5880    11.4740 cc         1 UCF      -0.187300
     40 SBM        -12.8200    -5.3330    12.6790 ss         1 UCF       0.303000
     41 CBN        -12.2480    -6.3860    13.9680 cc         1 UCF      -0.043000
     42 ClBQ       -12.2310    -5.8980    15.6350 cl         1 UCF      -0.167000
     43 CBO        -11.8340    -7.6000    13.4870 cd         1 UCF      -0.125000
     44 CBP        -11.9660    -7.7130    12.0760 cd         1 UCF      -0.141000
     45 HAK        -16.5820    -0.6370     6.8550 h1         1 UCF       0.035700
     46 HAL        -16.1650    -1.3820     5.2980 h1         1 UCF       0.035700
     47 HAJ        -14.9930    -1.4010     6.6430 h1         1 UCF       0.035700
     48 HAC        -13.9530    -1.6090     4.4880 ha         1 UCF       0.111000
     49 HAO        -14.4390     5.0020     5.2680 h1         1 UCF       0.038700
     50 HAM        -12.7850     4.4120     5.0060 h1         1 UCF       0.038700
     51 HAN        -13.9350     4.4910     3.6440 h1         1 UCF       0.038700
     52 HAF        -12.2000     2.8870     3.2500 ha         1 UCF       0.126000
     53 HAE        -11.1890     0.8650     2.2990 ha         1 UCF       0.147000
     54 HAG        -12.5800    -2.2990     2.1340 hc         1 UCF       0.057700
     55 HAH        -11.0320    -1.4870     2.0830 hc         1 UCF       0.057700
     56 HAP        -12.1620    -3.1790     4.3590 hc         1 UCF       0.045700
     57 HAQ        -10.7870    -3.5530     3.3380 hc         1 UCF       0.045700
     58 HAR        -10.9160    -1.2820     5.4160 h1         1 UCF       0.076700
     59 HAS         -9.6610     0.6020     4.8700 ha         1 UCF       0.125000
     60 HAV         -8.3450    -3.2390     3.3820 ha         1 UCF       0.092000
     61 HAU         -6.4020    -2.1460     2.2950 ha         1 UCF       0.096000
     62 HAT         -6.0750     0.2950     2.4780 ha         1 UCF       0.141000
     63 HAX         -5.7160     2.3430     3.3500 h1         1 UCF       0.037200
     64 HAW         -6.7040     3.7860     3.5720 h1         1 UCF       0.037200
     65 HA          -9.6100    -4.1730     8.4360 h1         1 UCF       0.105700
     66 HB1         -8.4300    -6.1200     7.5930 hc         1 UCF       0.058700
     67 HB2         -8.1850    -4.7890     6.4810 hc         1 UCF       0.058700
     68 HB3         -8.7070    -6.9270     5.2560 hc         1 UCF       0.053700
     69 HBD         -9.9510    -5.7200     4.9420 hc         1 UCF       0.053700
     70 HB4        -10.1100    -8.0530     6.9420 hc         1 UCF       0.046200
     71 HBE        -11.0530    -7.8750     5.4670 hc         1 UCF       0.046200
     72 HBF        -12.2590    -5.9330     6.3950 h1         1 UCF       0.057200
     73 HB5        -12.3790    -7.2950     7.4950 h1         1 UCF       0.057200
     74 HBJ        -12.5680    -7.3450     9.5140 hc         1 UCF       0.067700
     75 HB6        -14.3690    -5.9050     8.6240 hc         1 UCF       0.059200
     76 HBL        -14.5040    -5.0910    10.1740 hc         1 UCF       0.059200
     77 HB7        -16.2570    -6.8560     9.9040 hc         1 UCF       0.036367
     78 HB8        -15.0020    -8.0970     9.7030 hc         1 UCF       0.036367
     79 HBR        -15.1890    -7.2610    11.2620 hc         1 UCF       0.036367
     80 HBO        -11.4460    -8.3920    14.1200 ha         1 UCF       0.138000
     81 HBP        -11.6880    -8.6070    11.5260 ha         1 UCF       0.130000
@<TRIPOS>BOND
     1     1     2 1   
     2     1    45 1   
     3     1    46 1   
     4     1    47 1   
     5     2     3 1   
     6     3     4 ar  
     7     3     5 ar  
     8     4    10 ar  
     9     4    48 1   
    10     5     6 1   
    11     5     8 ar  
    12     6     7 1   
    13     7    49 1   
    14     7    50 1   
    15     7    51 1   
    16     8     9 ar  
    17     8    52 1   
    18     9    10 ar  
    19     9    53 1   
    20    10    11 1   
    21    11    12 1   
    22    11    54 1   
    23    11    55 1   
    24    12    13 1   
    25    12    56 1   
    26    12    57 1   
    27    13    14 1   
    28    13    25 1   
    29    13    58 1   
    30    14    15 ar  
    31    14    16 ar  
    32    15    19 ar  
    33    15    59 1   
    34    16    17 ar  
    35    16    60 1   
    36    17    18 ar  
    37    17    61 1   
    38    18    19 ar  
    39    18    62 1   
    40    19    20 1   
    41    20    21 1   
    42    21    22 1   
    43    21    63 1   
    44    21    64 1   
    45    22    23 1   
    46    22    24 1   
    47    25    26 1   
    48    26    27 2   
    49    26    28 1   
    50    28    29 1   
    51    28    33 1   
    52    28    65 1   
    53    29    30 1   
    54    29    66 1   
    55    29    67 1   
    56    30    31 1   
    57    30    68 1   
    58    30    69 1   
    59    31    32 1   
    60    31    70 1   
    61    31    71 1   
    62    32    33 1   
    63    32    72 1   
    64    32    73 1   
    65    33    34 1   
    66    34    35 2   
    67    34    36 1   
    68    36    37 1   
    69    36    39 1   
    70    36    74 1   
    71    37    38 1   
    72    37    75 1   
    73    37    76 1   
    74    38    77 1   
    75    38    78 1   
    76    38    79 1   
    77    39    40 1   
    78    39    44 2   
    79    40    41 1   
    80    41    42 1   
    81    41    43 2   
    82    43    44 1   
    83    43    80 1   
    84    44    81 1   
@<TRIPOS>SUBSTRUCTURE
     1 UCF         1 TEMP              0 ****  ****    0 ROOT
