@<TRIPOS>MOLECULE
UCF
   81    84     1     0     0
SMALL
abcg2


@<TRIPOS>ATOM
      1 CAJ        -15.3780     1.6880     8.2090 c3         1 UCF       0.148900
      2 OAI        -14.7050     2.5260     7.2720 os         1 UCF      -0.337100
      3 CAB        -14.0980     1.9340     6.2070 ca         1 UCF       0.098100
      4 CAC        -14.1190     0.5730     5.9470 ca         1 UCF      -0.169000
      5 CAA        -13.4120     2.8040     5.3290 ca         1 UCF       0.101100
      6 OAH        -13.4400     4.1260     5.6550 os         1 UCF      -0.338100
      7 CAK        -12.7710     5.0380     4.7880 c3         1 UCF       0.146900
      8 CAF        -12.7710     2.2730     4.2200 ca         1 UCF      -0.159000
      9 CAE        -12.8010     0.8970     3.9740 ca         1 UCF      -0.088000
     10 CAD        -13.4690     0.0340     4.8260 ca         1 UCF      -0.084300
     11 CAG        -13.4970    -1.4550     4.5790 c3         1 UCF      -0.024100
     12 CAL        -12.8320    -2.2830     5.6860 c3         1 UCF      -0.066400
     13 CAM        -11.3570    -1.9590     5.8760 c3         1 UCF       0.228600
     14 CAO        -10.5080    -2.2360     4.6620 ca         1 UCF      -0.097300
     15 CAP         -9.8630    -1.1880     4.0230 ca         1 UCF      -0.139000
     16 CAT        -10.3900    -3.5330     4.1540 ca         1 UCF      -0.167000
     17 CAS         -9.6310    -3.7540     3.0160 ca         1 UCF      -0.088000
     18 CAR         -8.9900    -2.7040     2.3600 ca         1 UCF      -0.166000
     19 CAQ         -9.1080    -1.4110     2.8670 ca         1 UCF       0.191100
     20 OAU         -8.5180    -0.3130     2.3260 os         1 UCF      -0.340100
     21 CAV         -7.7720    -0.4590     1.1190 c3         1 UCF       0.008600
     22 CAW         -8.6080    -0.6740    -0.1630 c          1 UCF       0.693000
     23 OAY         -7.9220    -0.9850    -1.1690 o          1 UCF      -0.719500
     24 OAX         -9.8450    -0.4970    -0.1090 o          1 UCF      -0.719500
     25 OAN        -10.9250    -2.8100     6.9820 os         1 UCF      -0.457100
     26 C           -9.8820    -2.4280     7.7160 c          1 UCF       0.579100
     27 O           -9.2720    -1.3950     7.5610 o          1 UCF      -0.479000
     28 CA          -9.5860    -3.4300     8.8380 c6         1 UCF       0.041700
     29 CB          -8.1170    -3.4180     9.2620 c6         1 UCF      -0.070400
     30 CBD         -7.2190    -4.0870     8.2240 c6         1 UCF      -0.079400
     31 CBE         -7.7360    -5.4880     7.9040 c6         1 UCF      -0.089400
     32 CBF         -9.1980    -5.4430     7.4740 c6         1 UCF       0.097000
     33 N          -10.0250    -4.7790     8.4890 n          1 UCF      -0.390800
     34 CBH        -11.2450    -5.1890     8.9200 c          1 UCF       0.614100
     35 OBI        -11.9440    -4.4870     9.6530 o          1 UCF      -0.612100
     36 CBJ        -11.7710    -6.5350     8.4240 c3         1 UCF      -0.066400
     37 CBL        -12.4970    -6.2870     7.0770 c3         1 UCF      -0.072400
     38 CBR        -12.9760    -7.5710     6.4130 c3         1 UCF      -0.090100
     39 CBK        -12.6380    -7.2290     9.4290 cc         1 UCF      -0.187300
     40 SBM        -14.1010    -6.5370    10.0590 ss         1 UCF       0.303000
     41 CBN        -14.4680    -7.9960    10.9120 cc         1 UCF      -0.043000
     42 CLBQ       -15.8880    -8.1030    11.8890 cl         1 UCF      -0.167000
     43 CBO        -13.5150    -8.9550    10.7460 cd         1 UCF      -0.125000
     44 CBP        -12.4740    -8.5070     9.8860 cd         1 UCF      -0.141000
     45 HAK        -15.7630     2.3520     8.9790 h1         1 UCF       0.035700
     46 HAL        -16.2070     1.1540     7.7360 h1         1 UCF       0.035700
     47 HAJ        -14.6900     0.9660     8.6560 h1         1 UCF       0.035700
     48 HAC        -14.6460    -0.0910     6.6180 ha         1 UCF       0.111000
     49 HAO        -12.9190     6.0240     5.2210 h1         1 UCF       0.038700
     50 HAM        -11.7020     4.8170     4.7340 h1         1 UCF       0.038700
     51 HAN        -13.1980     5.0100     3.7830 h1         1 UCF       0.038700
     52 HAF        -12.2410     2.9210     3.5380 ha         1 UCF       0.126000
     53 HAE        -12.2840     0.5060     3.1060 ha         1 UCF       0.147000
     54 HAG        -14.5330    -1.7940     4.4900 hc         1 UCF       0.057700
     55 HAH        -13.0140    -1.6680     3.6240 hc         1 UCF       0.057700
     56 HAP        -13.3390    -2.1110     6.6380 hc         1 UCF       0.045700
     57 HAQ        -12.9350    -3.3450     5.4540 hc         1 UCF       0.045700
     58 HAR        -11.2300    -0.9220     6.1810 h1         1 UCF       0.076700
     59 HAS         -9.9420    -0.1800     4.4080 ha         1 UCF       0.125000
     60 HAV        -10.8890    -4.3570     4.6460 ha         1 UCF       0.092000
     61 HAU         -9.5360    -4.7570     2.6180 ha         1 UCF       0.096000
     62 HAT         -8.4210    -2.9040     1.4640 ha         1 UCF       0.141000
     63 HAX         -7.0360    -1.2600     1.2170 h1         1 UCF       0.037200
     64 HAW         -7.2290     0.4810     1.0090 h1         1 UCF       0.037200
     65 HA         -10.2070    -3.1010     9.6720 h1         1 UCF       0.105700
     66 HB1         -8.0480    -3.9570    10.2110 hc         1 UCF       0.058700
     67 HB2         -7.8120    -2.3890     9.4450 hc         1 UCF       0.058700
     68 HB3         -6.1930    -4.1320     8.5920 hc         1 UCF       0.053700
     69 HBD         -7.2040    -3.4870     7.3090 hc         1 UCF       0.053700
     70 HB4         -7.6400    -6.1310     8.7840 hc         1 UCF       0.046200
     71 HBE         -7.1520    -5.9420     7.1000 hc         1 UCF       0.046200
     72 HBF         -9.2910    -4.8870     6.5360 h1         1 UCF       0.057200
     73 HB5         -9.5660    -6.4450     7.2900 h1         1 UCF       0.057200
     74 HBJ        -10.9440    -7.2200     8.2440 hc         1 UCF       0.067700
     75 HB6        -11.8140    -5.7590     6.4090 hc         1 UCF       0.059200
     76 HBL        -13.3390    -5.6140     7.2570 hc         1 UCF       0.059200
     77 HB7        -13.4540    -7.3500     5.4570 hc         1 UCF       0.036367
     78 HB8        -12.1390    -8.2470     6.2240 hc         1 UCF       0.036367
     79 HBR        -13.6980    -8.0980     7.0390 hc         1 UCF       0.036367
     80 HBO        -13.5550    -9.9280    11.2130 ha         1 UCF       0.138000
     81 HBP        -11.6310    -9.1210     9.5980 ha         1 UCF       0.130000
@<TRIPOS>BOND
     1     1     2 1   
     2     1    45 1   
     3     1    46 1   
     4     1    47 1   
     5     2     3 1   
     6     3     4 ar  
     7     3     5 ar  
     8     4    10 ar  
     9     4    48 1   
    10     5     6 1   
    11     5     8 ar  
    12     6     7 1   
    13     7    49 1   
    14     7    50 1   
    15     7    51 1   
    16     8     9 ar  
    17     8    52 1   
    18     9    10 ar  
    19     9    53 1   
    20    10    11 1   
    21    11    12 1   
    22    11    54 1   
    23    11    55 1   
    24    12    13 1   
    25    12    56 1   
    26    12    57 1   
    27    13    14 1   
    28    13    25 1   
    29    13    58 1   
    30    14    15 ar  
    31    14    16 ar  
    32    15    19 ar  
    33    15    59 1   
    34    16    17 ar  
    35    16    60 1   
    36    17    18 ar  
    37    17    61 1   
    38    18    19 ar  
    39    18    62 1   
    40    19    20 1   
    41    20    21 1   
    42    21    22 1   
    43    21    63 1   
    44    21    64 1   
    45    22    23 1   
    46    22    24 1   
    47    25    26 1   
    48    26    27 2   
    49    26    28 1   
    50    28    29 1   
    51    28    33 1   
    52    28    65 1   
    53    29    30 1   
    54    29    66 1   
    55    29    67 1   
    56    30    31 1   
    57    30    68 1   
    58    30    69 1   
    59    31    32 1   
    60    31    70 1   
    61    31    71 1   
    62    32    33 1   
    63    32    72 1   
    64    32    73 1   
    65    33    34 1   
    66    34    35 2   
    67    34    36 1   
    68    36    37 1   
    69    36    39 1   
    70    36    74 1   
    71    37    38 1   
    72    37    75 1   
    73    37    76 1   
    74    38    77 1   
    75    38    78 1   
    76    38    79 1   
    77    39    40 1   
    78    39    44 2   
    79    40    41 1   
    80    41    42 1   
    81    41    43 2   
    82    43    44 1   
    83    43    80 1   
    84    44    81 1   
@<TRIPOS>SUBSTRUCTURE
     1 UCF         1 TEMP              0 ****  ****    0 ROOT
