@<TRIPOS>MOLECULE
UCH
   28    29     1     0     0
SMALL
abcg2


@<TRIPOS>ATOM
      1 C15          0.9990    -4.5100    23.6580 c6         1 UCH      -0.184700
      2 C17         -0.9880    -3.0600    23.1010 c6         1 UCH       0.199300
      3 C20          1.8260    -3.6280    22.7050 c6         1 UCH      -0.088400
      4 C21         -0.4920    -2.3550    20.7880 ca         1 UCH       0.383000
      5 C22         -1.7430    -2.8040    20.3070 ca         1 UCH      -0.244000
      6 C26          0.4000    -1.9000    19.7910 ca         1 UCH      -0.244000
      7 C01          1.6130    -5.9250    23.7220 c          1 UCH       0.712000
      8 C16         -0.4790    -4.4940    23.2550 c6         1 UCH      -0.088400
      9 C19          1.2100    -2.2350    22.5720 c6         1 UCH       0.199300
     10 C23         -2.0220    -2.7540    18.9540 ca         1 UCH       0.355400
     11 C25          0.0120    -1.8950    18.4650 ca         1 UCH       0.355400
     12 N18         -0.1800    -2.3310    22.1210 nh         1 UCH      -0.792400
     13 N24         -1.1790    -2.3100    18.0120 nb         1 UCH      -0.724000
     14 O14          1.2020    -6.7820    22.8980 o          1 UCH      -0.732000
     15 H1           1.0880    -4.0760    24.6590 hc         1 UCH       0.029700
     16 H2          -0.8940    -2.5280    24.0510 h1         1 UCH       0.037700
     17 H3          -2.0370    -3.0330    22.8260 h1         1 UCH       0.037700
     18 H4           1.8660    -4.0930    21.7150 hc         1 UCH       0.053450
     19 H5           2.8520    -3.5430    23.0720 hc         1 UCH       0.053450
     20 H6          -2.4990    -3.1950    20.9690 ha         1 UCH       0.117000
     21 H7           1.3900    -1.5470    20.0340 ha         1 UCH       0.117000
     22 H9          -1.0810    -5.0160    24.0040 hc         1 UCH       0.053450
     23 H10         -0.6040    -5.0270    22.3090 hc         1 UCH       0.053450
     24 H11          1.7890    -1.6050    21.9040 h1         1 UCH       0.037700
     25 H12          1.2000    -1.7410    23.5470 h1         1 UCH       0.037700
     26 H13         -2.9900    -3.1030    18.6070 h4         1 UCH      -0.001400
     27 H14          0.7130    -1.5370    17.7170 h4         1 UCH      -0.001400
     28 OXT          2.5160    -6.1030    24.5820 o          1 UCH      -0.732000
@<TRIPOS>BOND
     1     1     3 1   
     2     1     7 1   
     3     1     8 1   
     4     1    15 1   
     5     2     8 1   
     6     2    12 1   
     7     2    16 1   
     8     2    17 1   
     9     3     9 1   
    10     3    18 1   
    11     3    19 1   
    12     4     5 ar  
    13     4     6 ar  
    14     4    12 1   
    15     5    10 ar  
    16     5    20 1   
    17     6    11 ar  
    18     6    21 1   
    19     7    14 1   
    20     7    28 1   
    21     8    22 1   
    22     8    23 1   
    23     9    12 1   
    24     9    24 1   
    25     9    25 1   
    26    10    13 ar  
    27    10    26 1   
    28    11    13 ar  
    29    11    27 1   
@<TRIPOS>SUBSTRUCTURE
     1 UCH         1 TEMP              0 ****  ****    0 ROOT
