@<TRIPOS>MOLECULE
UCH
   28    29     1     0     0
SMALL
No Charge or Current Charge


@<TRIPOS>ATOM
      1 C15          1.0720    -4.4570    23.9920 c6         1 UCH      -0.184700
      2 C17         -0.8710    -3.3460    22.7350 c6         1 UCH       0.199300
      3 C20          1.9600    -4.1880    22.7450 c6         1 UCH      -0.088400
      4 C21         -0.4860    -2.4870    20.4060 ca         1 UCH       0.383000
      5 C22         -1.5940    -3.0360    19.7520 ca         1 UCH      -0.244000
      6 C26          0.0870    -1.3270    19.8680 ca         1 UCH      -0.244000
      7 C01          1.5530    -5.6780    24.8150 c          1 UCH       0.712000
      8 C16         -0.4130    -4.5830    23.5470 c6         1 UCH      -0.088400
      9 C19          1.4640    -2.9600    21.9410 c6         1 UCH       0.199300
     10 C23         -2.0840    -2.4150    18.6000 ca         1 UCH       0.355400
     11 C25         -0.4670    -0.7680    18.7120 ca         1 UCH       0.355400
     12 N18          0.0260    -3.1000    21.5710 nh         1 UCH      -0.792400
     13 N24         -1.5360    -1.2960    18.0790 nb         1 UCH      -0.724000
     14 O14          1.5570    -6.7780    24.2820 o          1 UCH      -0.732000
     15 H1           1.1470    -3.5790    24.6490 hc         1 UCH       0.029700
     16 H2          -0.8750    -2.4640    23.3930 h1         1 UCH       0.037700
     17 H3          -1.9070    -3.5070    22.4050 h1         1 UCH       0.037700
     18 H4           1.9630    -5.0690    22.0900 hc         1 UCH       0.053450
     19 H5           3.0020    -4.0270    23.0540 hc         1 UCH       0.053450
     20 H6          -2.0660    -3.9400    20.1210 ha         1 UCH       0.117000
     21 H7           0.9400    -0.8490    20.3360 ha         1 UCH       0.117000
     22 H9          -1.0600    -4.7050    24.4260 hc         1 UCH       0.053450
     23 H10         -0.5460    -5.4850    22.9340 hc         1 UCH       0.053450
     24 H11          2.0850    -2.8640    21.0370 h1         1 UCH       0.037700
     25 H12          1.6100    -2.0480    22.5400 h1         1 UCH       0.037700
     26 H13         -2.9430    -2.8250    18.0700 h4         1 UCH      -0.001400
     27 H14         -0.0430     0.1360    18.2760 h4         1 UCH      -0.001400
     28 OXT          1.9110    -5.4850    25.9680 o          1 UCH      -0.732000
@<TRIPOS>BOND
     1     1     3 1   
     2     1     7 1   
     3     1     8 1   
     4     1    15 1   
     5     2     8 1   
     6     2    12 1   
     7     2    16 1   
     8     2    17 1   
     9     3     9 1   
    10     3    18 1   
    11     3    19 1   
    12     4     5 ar  
    13     4     6 ar  
    14     4    12 1   
    15     5    10 ar  
    16     5    20 1   
    17     6    11 ar  
    18     6    21 1   
    19     7    14 1   
    20     7    28 1   
    21     8    22 1   
    22     8    23 1   
    23     9    12 1   
    24     9    24 1   
    25     9    25 1   
    26    10    13 ar  
    27    10    26 1   
    28    11    13 ar  
    29    11    27 1   
@<TRIPOS>SUBSTRUCTURE
     1 UCH         1 TEMP              0 ****  ****    0 ROOT
