@<TRIPOS>MOLECULE
UCI
   54    56     1     0     0
SMALL
No Charge or Current Charge


@<TRIPOS>ATOM
      1 N1          30.8930    -9.5530   -35.3330 ns         1 UCI      -0.147000
      2 C4          31.6350   -11.5940   -34.0960 ca         1 UCI      -0.142000
      3 C5          31.6780   -10.2040   -34.3420 ca         1 UCI      -0.001000
      4 C6          32.5510    -9.4080   -33.5780 ca         1 UCI      -0.142000
      5 C7          33.3600    -9.9820   -32.5820 ca         1 UCI      -0.067000
      6 C8          29.8680   -10.0000   -36.1610 c          1 UCI       0.618100
      7 C10         27.8210    -8.5460   -36.8790 c6         1 UCI      -0.049400
      8 C13         29.6310    -9.2030   -38.6100 c6         1 UCI       0.209800
      9 C15         29.2450    -9.5830   -43.3330 c3         1 UCI      -0.058100
     10 C17         24.5260    -9.9830   -36.6480 ca         1 UCI      -0.103000
     11 C20         23.5450    -7.6360   -37.8390 ca         1 UCI      -0.109000
     12 C21         24.8960    -7.9900   -37.9940 ca         1 UCI      -0.103000
     13 F1          33.0230   -13.7170   -30.5150 f          1 UCI      -0.109333
     14 C1          34.2120   -13.2480   -30.9600 c3         1 UCI       0.500000
     15 F2          34.6130   -14.0340   -31.9860 f          1 UCI      -0.109333
     16 F3          35.1020   -13.4250   -29.9590 f          1 UCI      -0.109333
     17 C2          33.3150   -11.3630   -32.3320 ca         1 UCI       0.056100
     18 C3          32.4450   -12.1710   -33.0990 ca         1 UCI      -0.067000
     19 O2          29.4210   -11.1400   -36.1310 o          1 UCI      -0.566100
     20 C9          29.3040    -8.9290   -37.1240 c6         1 UCI      -0.138700
     21 C11         26.8730    -9.5670   -37.5610 c6         1 UCI      -0.018400
     22 C12         27.2670    -9.7530   -39.0530 c6         1 UCI       0.209800
     23 N2          28.6860   -10.1810   -39.2050 n3         1 UCI      -0.755500
     24 S1          29.1080   -10.7320   -40.7820 s6         1 UCI       1.226100
     25 O3          30.5290   -11.0920   -40.7310 o          1 UCI      -0.532500
     26 O4          28.1260   -11.7610   -41.1410 o          1 UCI      -0.532500
     27 C14         28.8950    -9.2940   -41.8540 c3         1 UCI      -0.347400
     28 C16         25.3980    -9.1680   -37.4000 ca         1 UCI      -0.086300
     29 C18         23.1740    -9.6270   -36.4950 ca         1 UCI      -0.109000
     30 C19         22.6830    -8.4540   -37.0910 ca         1 UCI      -0.106000
     31 H1          31.1300    -8.5780   -35.4620 hn         1 UCI       0.148000
     32 H2          30.9880   -12.2500   -34.6690 ha         1 UCI       0.137000
     33 H3          32.6040    -8.3350   -33.7520 ha         1 UCI       0.137000
     34 H4          34.0280    -9.3520   -31.9990 ha         1 UCI       0.136000
     35 H5          27.6370    -7.5430   -37.2880 hc         1 UCI       0.055700
     36 H6          27.6100    -8.4860   -35.8020 hc         1 UCI       0.055700
     37 H7          30.6700    -9.5580   -38.6810 h1         1 UCI       0.055700
     38 H8          29.5810    -8.2510   -39.1610 h1         1 UCI       0.055700
     39 H9          29.1000    -8.6820   -43.9430 hc         1 UCI       0.052033
     40 H10         30.2920    -9.8960   -43.4350 hc         1 UCI       0.052033
     41 H11         28.6060   -10.3750   -43.7410 hc         1 UCI       0.052033
     42 H12         24.8920   -10.8940   -36.1800 ha         1 UCI       0.112500
     43 H13         23.1660    -6.7260   -38.3000 ha         1 UCI       0.114500
     44 H14         25.5500    -7.3440   -38.5740 ha         1 UCI       0.112500
     45 H15         32.3800   -13.2430   -32.9440 ha         1 UCI       0.136000
     46 H16         29.8740    -8.0210   -36.8850 hc         1 UCI       0.062700
     47 H17         27.0190   -10.5400   -37.0750 hc         1 UCI       0.093700
     48 H18         27.0910    -8.8140   -39.5960 h1         1 UCI       0.058200
     49 H19         26.5890   -10.5040   -39.4850 h1         1 UCI       0.058200
     50 H20         29.5430    -8.5060   -41.4570 h1         1 UCI       0.084700
     51 H21         27.8480    -8.9860   -41.7660 h1         1 UCI       0.084700
     52 H22         22.5080   -10.2610   -35.9140 ha         1 UCI       0.114500
     53 H23         21.6370    -8.1790   -36.9720 ha         1 UCI       0.114000
     54 O1          34.1400   -11.8570   -31.3360 os         1 UCI      -0.397100
@<TRIPOS>BOND
     1     1     3 1   
     2     1     6 1   
     3     1    31 1   
     4     2     3 ar  
     5     2    18 ar  
     6     2    32 1   
     7     3     4 ar  
     8     4     5 ar  
     9     4    33 1   
    10     5    17 ar  
    11     5    34 1   
    12     6    19 2   
    13     6    20 1   
    14     7    20 1   
    15     7    21 1   
    16     7    35 1   
    17     7    36 1   
    18     8    20 1   
    19     8    23 1   
    20     8    37 1   
    21     8    38 1   
    22     9    27 1   
    23     9    39 1   
    24     9    40 1   
    25     9    41 1   
    26    10    28 ar  
    27    10    29 ar  
    28    10    42 1   
    29    11    12 ar  
    30    11    30 ar  
    31    11    43 1   
    32    12    28 ar  
    33    12    44 1   
    34    13    14 1   
    35    14    15 1   
    36    14    16 1   
    37    14    54 1   
    38    17    18 ar  
    39    17    54 1   
    40    18    45 1   
    41    20    46 1   
    42    21    22 1   
    43    21    28 1   
    44    21    47 1   
    45    22    23 1   
    46    22    48 1   
    47    22    49 1   
    48    23    24 1   
    49    24    25 2   
    50    24    26 2   
    51    24    27 1   
    52    27    50 1   
    53    27    51 1   
    54    29    30 ar  
    55    29    52 1   
    56    30    53 1   
@<TRIPOS>SUBSTRUCTURE
     1 UCI         1 TEMP              0 ****  ****    0 ROOT
