@<TRIPOS>MOLECULE
UCI
   54    56     1     0     0
SMALL
abcg2


@<TRIPOS>ATOM
      1 N1          30.6160    -9.3150   -35.2820 ns         1 UCI      -0.147000
      2 C4          30.9400   -11.3090   -33.8600 ca         1 UCI      -0.142000
      3 C5          31.4150   -10.1570   -34.4950 ca         1 UCI      -0.001000
      4 C6          32.7620    -9.8020   -34.3540 ca         1 UCI      -0.142000
      5 C7          33.6260   -10.5810   -33.6020 ca         1 UCI      -0.067000
      6 C8          29.2800    -9.3880   -35.5550 c          1 UCI       0.618100
      7 C10         27.2730    -8.1820   -36.5730 c6         1 UCI      -0.049400
      8 C13         29.3670    -8.5100   -37.9270 c6         1 UCI       0.209800
      9 C15         30.4650   -10.3190   -42.2070 c3         1 UCI      -0.058100
     10 C17         24.2190   -10.0440   -36.9980 ca         1 UCI      -0.103000
     11 C20         23.2310    -7.8230   -38.3330 ca         1 UCI      -0.109000
     12 C21         24.6030    -7.9970   -38.1880 ca         1 UCI      -0.103000
     13 F1          33.9590   -14.3520   -33.4420 f          1 UCI      -0.109333
     14 C1          34.7180   -13.4570   -32.7790 c3         1 UCI       0.500000
     15 F2          35.6040   -12.9680   -33.6720 f          1 UCI      -0.109333
     16 F3          35.4030   -14.1110   -31.8380 f          1 UCI      -0.109333
     17 C2          33.1370   -11.7250   -32.9920 ca         1 UCI       0.056100
     18 C3          31.8090   -12.0910   -33.1080 ca         1 UCI      -0.067000
     19 O2          28.5380   -10.2350   -35.0770 o          1 UCI      -0.566100
     20 C9          28.7990    -8.2980   -36.5160 c6         1 UCI      -0.138700
     21 C11         26.6050    -9.3210   -37.3620 c6         1 UCI      -0.018400
     22 C12         27.2740    -9.5020   -38.7300 c6         1 UCI       0.209800
     23 N2          28.7210    -9.6760   -38.5370 n3         1 UCI      -0.755500
     24 S1          29.5680   -10.5700   -39.6170 s6         1 UCI       1.226100
     25 O3          30.8970   -10.7480   -39.0730 o          1 UCI      -0.532500
     26 O4          28.7800   -11.7470   -39.9120 o          1 UCI      -0.532500
     27 C14         29.6980    -9.5930   -41.1100 c3         1 UCI      -0.347400
     28 C16         25.1170    -9.1110   -37.5190 ca         1 UCI      -0.086300
     29 C18         22.8450    -9.8730   -37.1390 ca         1 UCI      -0.109000
     30 C19         22.3460    -8.7610   -37.8080 ca         1 UCI      -0.106000
     31 H1          31.1100    -8.5360   -35.6920 hn         1 UCI       0.148000
     32 H2          29.9050   -11.5890   -33.9540 ha         1 UCI       0.137000
     33 H3          33.1330    -8.9060   -34.8370 ha         1 UCI       0.137000
     34 H4          34.6640   -10.3020   -33.4890 ha         1 UCI       0.136000
     35 H5          27.0350    -7.2280   -37.0500 hc         1 UCI       0.055700
     36 H6          26.8610    -8.1500   -35.5640 hc         1 UCI       0.055700
     37 H7          30.4410    -8.6710   -37.9060 h1         1 UCI       0.055700
     38 H8          29.1650    -7.6140   -38.5250 h1         1 UCI       0.055700
     39 H9          30.5150    -9.6800   -43.0890 hc         1 UCI       0.052033
     40 H10         31.4830   -10.5470   -41.8910 hc         1 UCI       0.052033
     41 H11         29.9670   -11.2480   -42.4850 hc         1 UCI       0.052033
     42 H12         24.6030   -10.9130   -36.4770 ha         1 UCI       0.112500
     43 H13         22.8520    -6.9530   -38.8560 ha         1 UCI       0.114500
     44 H14         25.2770    -7.2560   -38.6010 ha         1 UCI       0.112500
     45 H15         31.4500   -12.9830   -32.6120 ha         1 UCI       0.136000
     46 H16         29.2070    -7.3510   -36.1530 hc         1 UCI       0.062700
     47 H17         26.7590   -10.2470   -36.8100 hc         1 UCI       0.093700
     48 H18         27.0880    -8.6300   -39.3670 h1         1 UCI       0.058200
     49 H19         26.8750   -10.3840   -39.2240 h1         1 UCI       0.058200
     50 H20         30.1890    -8.6640   -40.8140 h1         1 UCI       0.084700
     51 H21         28.6730    -9.3680   -41.4070 h1         1 UCI       0.084700
     52 H22         22.1660   -10.6090   -36.7260 ha         1 UCI       0.114500
     53 H23         21.2780    -8.6240   -37.9200 ha         1 UCI       0.114000
     54 O1          33.9950   -12.4980   -32.1780 os         1 UCI      -0.397100
@<TRIPOS>BOND
     1     1     3 1   
     2     1     6 1   
     3     1    31 1   
     4     2     3 ar  
     5     2    18 ar  
     6     2    32 1   
     7     3     4 ar  
     8     4     5 ar  
     9     4    33 1   
    10     5    17 ar  
    11     5    34 1   
    12     6    19 2   
    13     6    20 1   
    14     7    20 1   
    15     7    21 1   
    16     7    35 1   
    17     7    36 1   
    18     8    20 1   
    19     8    23 1   
    20     8    37 1   
    21     8    38 1   
    22     9    27 1   
    23     9    39 1   
    24     9    40 1   
    25     9    41 1   
    26    10    28 ar  
    27    10    29 ar  
    28    10    42 1   
    29    11    12 ar  
    30    11    30 ar  
    31    11    43 1   
    32    12    28 ar  
    33    12    44 1   
    34    13    14 1   
    35    14    15 1   
    36    14    16 1   
    37    14    54 1   
    38    17    18 ar  
    39    17    54 1   
    40    18    45 1   
    41    20    46 1   
    42    21    22 1   
    43    21    28 1   
    44    21    47 1   
    45    22    23 1   
    46    22    48 1   
    47    22    49 1   
    48    23    24 1   
    49    24    25 2   
    50    24    26 2   
    51    24    27 1   
    52    27    50 1   
    53    27    51 1   
    54    29    30 ar  
    55    29    52 1   
    56    30    53 1   
@<TRIPOS>SUBSTRUCTURE
     1 UCI         1 TEMP              0 ****  ****    0 ROOT
