@<TRIPOS>MOLECULE
UCJ
   18    17     1     0     0
SMALL
No Charge or Current Charge


@<TRIPOS>ATOM
      1 O1          45.6270    50.3660   352.3290 o          1 UCJ      -0.830000
      2 P1          45.7930    49.2800   351.3160 p5         1 UCJ       1.412400
      3 C1          45.3360    49.8720   349.6410 c3         1 UCJ      -0.463100
      4 O2          44.7240    48.0830   351.5090 os         1 UCJ      -0.611400
      5 C2          43.4380    48.2640   352.1250 c3         1 UCJ       0.244300
      6 C4          42.5550    49.2230   351.2930 c3         1 UCJ      -0.104600
      7 C3          42.8150    46.8600   352.2550 c3         1 UCJ      -0.104600
      8 O3          47.1890    48.7480   351.2730 o          1 UCJ      -0.830000
      9 H1          46.2200    50.2960   349.1530 hc         1 UCJ       0.034033
     10 H2          44.9630    49.0370   349.0390 hc         1 UCJ       0.034033
     11 H3          44.5660    50.6470   349.7040 hc         1 UCJ       0.034033
     12 H4          43.5530    48.6800   353.1350 h1         1 UCJ       0.038700
     13 H5          41.5270    49.2160   351.6750 hc         1 UCJ       0.024200
     14 H6          42.9160    50.2550   351.3600 hc         1 UCJ       0.024200
     15 H7          42.5260    48.9200   350.2400 hc         1 UCJ       0.024200
     16 H8          41.8410    46.9180   352.7540 hc         1 UCJ       0.024200
     17 H9          42.6690    46.4040   351.2680 hc         1 UCJ       0.024200
     18 H10         43.4620    46.2050   352.8500 hc         1 UCJ       0.024200
@<TRIPOS>BOND
     1     1     2 1   
     2     2     3 1   
     3     2     4 1   
     4     2     8 1   
     5     3     9 1   
     6     3    10 1   
     7     3    11 1   
     8     4     5 1   
     9     5     6 1   
    10     5     7 1   
    11     5    12 1   
    12     6    13 1   
    13     6    14 1   
    14     6    15 1   
    15     7    16 1   
    16     7    17 1   
    17     7    18 1   
@<TRIPOS>SUBSTRUCTURE
     1 UCJ         1 TEMP              0 ****  ****    0 ROOT
