@<TRIPOS>MOLECULE
UCJ
   18    17     1     0     0
SMALL
bcc


@<TRIPOS>ATOM
      1 O1          45.5870    50.3000   352.3290 o          1 UCJ      -0.830000
      2 P1          45.8140    49.2450   351.2770 p5         1 UCJ       1.254600
      3 C1          45.4680    49.9400   349.6210 c3         1 UCJ      -0.305300
      4 O2          44.6440    48.0740   351.4010 os         1 UCJ      -0.588200
      5 C2          43.4180    48.2680   352.0890 c3         1 UCJ       0.221100
      6 C4          42.4680    49.1780   351.3220 c3         1 UCJ      -0.104600
      7 C3          42.8010    46.8960   352.3080 c3         1 UCJ      -0.104600
      8 O3          47.1210    48.5030   351.2150 o          1 UCJ      -0.830000
      9 H1          46.2240    50.6880   349.3750 hc         1 UCJ       0.034033
     10 H2          45.5010    49.1700   348.8510 hc         1 UCJ       0.034033
     11 H3          44.4940    50.4270   349.5720 hc         1 UCJ       0.034033
     12 H4          43.6120    48.7220   353.0670 h1         1 UCJ       0.038700
     13 H5          41.5110    49.2460   351.8420 hc         1 UCJ       0.024200
     14 H6          42.8640    50.1880   351.2320 hc         1 UCJ       0.024200
     15 H7          42.2790    48.7900   350.3190 hc         1 UCJ       0.024200
     16 H8          41.8780    46.9820   352.8820 hc         1 UCJ       0.024200
     17 H9          42.5590    46.4170   351.3580 hc         1 UCJ       0.024200
     18 H10         43.4770    46.2410   352.8580 hc         1 UCJ       0.024200
@<TRIPOS>BOND
     1     1     2 1   
     2     2     3 1   
     3     2     4 1   
     4     2     8 1   
     5     3     9 1   
     6     3    10 1   
     7     3    11 1   
     8     4     5 1   
     9     5     6 1   
    10     5     7 1   
    11     5    12 1   
    12     6    13 1   
    13     6    14 1   
    14     6    15 1   
    15     7    16 1   
    16     7    17 1   
    17     7    18 1   
@<TRIPOS>SUBSTRUCTURE
     1 UCJ         1 TEMP              0 ****  ****    0 ROOT
