@<TRIPOS>MOLECULE
UCK
   44    46     1     0     0
SMALL
No Charge or Current Charge


@<TRIPOS>ATOM
      1 O01          1.3520    -1.8860    -3.0690 oh         1 UCK      -0.652000
      2 C02          1.1650    -2.3380    -1.7230 c5         1 UCK       0.156300
      3 C03         -0.0670    -1.6650    -1.0700 c5         1 UCK      -0.082400
      4 C04          0.4600    -0.2300    -0.7670 c5         1 UCK       0.032700
      5 C05         -0.4640     0.4230     0.3080 c          1 UCK       0.604100
      6 N06         -1.5560     0.9900    -0.3150 ns         1 UCK      -0.497900
      7 C07         -2.6610     1.6420     0.3860 c3         1 UCK       0.148300
      8 C08         -3.7890     0.6590     0.6600 ca         1 UCK      -0.112300
      9 C09         -3.7930    -0.1040     1.8440 ca         1 UCK      -0.090000
     10 C10         -4.8310    -1.0190     2.0930 ca         1 UCK      -0.107500
     11 C11         -5.8680    -1.1750     1.1600 ca         1 UCK       0.124000
     12 Cl1         -7.1660    -2.3210     1.4720 cl         1 UCK      -0.205000
     13 C13         -5.8700    -0.4190    -0.0230 ca         1 UCK      -0.107500
     14 C14         -4.8320     0.4960    -0.2740 ca         1 UCK      -0.090000
     15 O15         -0.2890     0.4560     1.5210 o          1 UCK      -0.602100
     16 N16          1.8450    -0.5350    -0.3120 n          1 UCK      -0.387800
     17 C17          2.7390     0.4830     0.0870 c          1 UCK       0.633700
     18 C18          4.0540     0.0570     0.6920 ca         1 UCK      -0.134600
     19 C19          5.2660     0.6930     0.3360 ca         1 UCK       0.136000
     20 Cl2          5.3320     1.9540    -0.8960 cl         1 UCK      -0.194000
     21 C21          6.4770     0.2900     0.9280 ca         1 UCK      -0.110000
     22 C22          6.4940    -0.7380     1.8840 ca         1 UCK      -0.090000
     23 C23          5.2950    -1.3680     2.2510 ca         1 UCK      -0.112000
     24 C24          4.0820    -0.9730     1.6610 ca         1 UCK      -0.065000
     25 O25          2.4070     1.6610     0.0330 o          1 UCK      -0.580100
     26 C26          2.3100    -1.8690    -0.7720 c5         1 UCK       0.073000
     27 H01          2.1070    -2.3920    -3.4420 ho         1 UCK       0.448000
     28 H02          1.0690    -3.4330    -1.7110 h1         1 UCK       0.052700
     29 H031        -0.9460    -1.6640    -1.7240 hc         1 UCK       0.071700
     30 H032        -0.3500    -2.1910    -0.1490 hc         1 UCK       0.071700
     31 H261         2.4090    -2.5590     0.0760 h1         1 UCK       0.060200
     32 H262         3.2790    -1.8170    -1.2860 h1         1 UCK       0.060200
     33 H04          0.4780     0.3990    -1.6670 h1         1 UCK       0.080700
     34 H06         -1.6090     0.9060    -1.3230 hn         1 UCK       0.318500
     35 H071        -2.3010     2.0740     1.3300 h1         1 UCK       0.066700
     36 H072        -3.0320     2.4700    -0.2330 h1         1 UCK       0.066700
     37 H09         -2.9900     0.0090     2.5700 ha         1 UCK       0.124500
     38 H14         -4.8390     1.0770    -1.1950 ha         1 UCK       0.124500
     39 H10         -4.8310    -1.6070     3.0080 ha         1 UCK       0.129500
     40 H13         -6.6730    -0.5430    -0.7450 ha         1 UCK       0.129500
     41 H24          3.1590    -1.4540     1.9770 ha         1 UCK       0.134000
     42 H21          7.4060     0.7760     0.6400 ha         1 UCK       0.131000
     43 H22          7.4330    -1.0440     2.3400 ha         1 UCK       0.120000
     44 H23          5.3030    -2.1600     2.9970 ha         1 UCK       0.123000
@<TRIPOS>BOND
     1     1     2 1   
     2     1    27 1   
     3     2     3 1   
     4     2    26 1   
     5     2    28 1   
     6     3     4 1   
     7     3    29 1   
     8     3    30 1   
     9     4     5 1   
    10     4    16 1   
    11     4    33 1   
    12     5     6 1   
    13     5    15 2   
    14     6     7 1   
    15     6    34 1   
    16     7     8 1   
    17     7    35 1   
    18     7    36 1   
    19     8     9 ar  
    20     8    14 ar  
    21     9    10 ar  
    22     9    37 1   
    23    10    11 ar  
    24    10    39 1   
    25    11    12 1   
    26    11    13 ar  
    27    13    14 ar  
    28    13    40 1   
    29    14    38 1   
    30    16    17 1   
    31    16    26 1   
    32    17    18 1   
    33    17    25 2   
    34    18    19 ar  
    35    18    24 ar  
    36    19    20 1   
    37    19    21 ar  
    38    21    22 ar  
    39    21    42 1   
    40    22    23 ar  
    41    22    43 1   
    42    23    24 ar  
    43    23    44 1   
    44    24    41 1   
    45    26    31 1   
    46    26    32 1   
@<TRIPOS>SUBSTRUCTURE
     1 UCK         1 TEMP              0 ****  ****    0 ROOT
