@<TRIPOS>MOLECULE
UCK
   44    46     1     0     0
SMALL
abcg2


@<TRIPOS>ATOM
      1 O01          1.7600    -2.1760    -2.7400 oh         1 UCK      -0.652000
      2 C02          1.3360    -2.5870    -1.4620 c5         1 UCK       0.156300
      3 C03          0.0210    -1.8850    -1.1630 c5         1 UCK      -0.082400
      4 C04          0.4440    -0.4760    -0.7140 c5         1 UCK       0.032700
      5 C05         -0.4460     0.0090     0.4250 c          1 UCK       0.604100
      6 N06         -1.3940     0.8900     0.0580 ns         1 UCK      -0.497900
      7 C07         -2.4180     1.3780     0.9530 c3         1 UCK       0.148300
      8 C08         -3.7070     0.6050     0.8220 ca         1 UCK      -0.112300
      9 C09         -3.7930    -0.7080     1.2810 ca         1 UCK      -0.090000
     10 C10         -4.9590    -1.4400     1.1330 ca         1 UCK      -0.107500
     11 C11         -6.0530    -0.8510     0.5160 ca         1 UCK       0.124000
     12 CL1         -7.5160    -1.7570     0.3080 cl         1 UCK      -0.205000
     13 C13         -5.9990     0.4530     0.0590 ca         1 UCK      -0.107500
     14 C14         -4.8210     1.1720     0.2170 ca         1 UCK      -0.090000
     15 O15         -0.3310    -0.4400     1.5490 o          1 UCK      -0.602100
     16 N16          1.8050    -0.6630    -0.2590 n          1 UCK      -0.387800
     17 C17          2.4940     0.3890     0.2100 c          1 UCK       0.633700
     18 C18          3.9030     0.1220     0.6490 ca         1 UCK      -0.134600
     19 C19          4.9470     0.0080    -0.2580 ca         1 UCK       0.136000
     20 CL2          4.6130     0.0800    -1.9560 cl         1 UCK      -0.194000
     21 C21          6.2550    -0.1680     0.1660 ca         1 UCK      -0.110000
     22 C22          6.5240    -0.2310     1.5240 ca         1 UCK      -0.090000
     23 C23          5.4940    -0.1160     2.4460 ca         1 UCK      -0.112000
     24 C24          4.1920     0.0670     2.0070 ca         1 UCK      -0.065000
     25 O25          2.0130     1.5020     0.2940 o          1 UCK      -0.580100
     26 C26          2.2320    -2.0450    -0.3540 c5         1 UCK       0.073000
     27 H01          2.6500    -2.5020    -2.8930 ho         1 UCK       0.448000
     28 H02          1.2440    -3.6770    -1.3940 h1         1 UCK       0.052700
     29 H031        -0.6540    -1.8660    -2.0170 hc         1 UCK       0.071700
     30 H032        -0.4820    -2.4140    -0.3510 hc         1 UCK       0.071700
     31 H261         2.0460    -2.5850     0.5790 h1         1 UCK       0.060200
     32 H262         3.2940    -2.1370    -0.5840 h1         1 UCK       0.060200
     33 H04          0.4260     0.2240    -1.5540 h1         1 UCK       0.080700
     34 H06         -1.4130     1.2170    -0.8920 hn         1 UCK       0.318500
     35 H071        -2.0420     1.3190     1.9730 h1         1 UCK       0.066700
     36 H072        -2.5900     2.4330     0.7360 h1         1 UCK       0.066700
     37 H09         -2.9420    -1.1660     1.7680 ha         1 UCK       0.124500
     38 H14         -4.7780     2.1930    -0.1410 ha         1 UCK       0.124500
     39 H10         -5.0150    -2.4550     1.5020 ha         1 UCK       0.129500
     40 H13         -6.8580     0.9080    -0.4140 ha         1 UCK       0.129500
     41 H24          3.3850     0.1640     2.7220 ha         1 UCK       0.134000
     42 H21          7.0520    -0.2480    -0.5600 ha         1 UCK       0.131000
     43 H22          7.5430    -0.3680     1.8580 ha         1 UCK       0.120000
     44 H23          5.7030    -0.1620     3.5060 ha         1 UCK       0.123000
@<TRIPOS>BOND
     1     1     2 1   
     2     1    27 1   
     3     2     3 1   
     4     2    26 1   
     5     2    28 1   
     6     3     4 1   
     7     3    29 1   
     8     3    30 1   
     9     4     5 1   
    10     4    16 1   
    11     4    33 1   
    12     5     6 1   
    13     5    15 2   
    14     6     7 1   
    15     6    34 1   
    16     7     8 1   
    17     7    35 1   
    18     7    36 1   
    19     8     9 ar  
    20     8    14 ar  
    21     9    10 ar  
    22     9    37 1   
    23    10    11 ar  
    24    10    39 1   
    25    11    12 1   
    26    11    13 ar  
    27    13    14 ar  
    28    13    40 1   
    29    14    38 1   
    30    16    17 1   
    31    16    26 1   
    32    17    18 1   
    33    17    25 2   
    34    18    19 ar  
    35    18    24 ar  
    36    19    20 1   
    37    19    21 ar  
    38    21    22 ar  
    39    21    42 1   
    40    22    23 ar  
    41    22    43 1   
    42    23    24 ar  
    43    23    44 1   
    44    24    41 1   
    45    26    31 1   
    46    26    32 1   
@<TRIPOS>SUBSTRUCTURE
     1 UCK         1 TEMP              0 ****  ****    0 ROOT
