@<TRIPOS>MOLECULE
UCM
   45    52     1     0     0
SMALL
bcc


@<TRIPOS>ATOM
      1 N18         -0.0320     4.0800    -0.2700 ns         1 UCM      -0.626500
      2 C29         -1.1750     3.3080    -0.2050 c          1 UCM       0.739100
      3 O30         -2.3030     3.7360    -0.2390 o          1 UCM      -0.576500
      4 C10         -0.7060     1.9100    -0.0900 ca         1 UCM      -0.121100
      5 C09         -1.4260     0.7170     0.0050 cp         1 UCM      -0.007500
      6 C15         -2.8140     0.3280     0.0380 cp         1 UCM      -0.081500
      7 C16         -2.8320    -1.0780     0.1640 ca         1 UCM       0.003800
      8 C34         -4.0210    -1.8000     0.2100 ca         1 UCM      -0.168000
      9 C33         -5.2040    -1.0880     0.1440 ca         1 UCM      -0.089500
     10 C32         -5.2080     0.3070     0.0290 ca         1 UCM      -0.165000
     11 C31         -4.0250     1.0200    -0.0250 ca         1 UCM      -0.052500
     12 N17         -1.5380    -1.5430     0.2230 na         1 UCM      -0.083800
     13 C08         -0.6880    -0.4810     0.1110 ca         1 UCM      -0.012700
     14 C07          0.7060    -0.4680     0.1130 ca         1 UCM      -0.012700
     15 N06          1.5760    -1.5150     0.2260 na         1 UCM      -0.083800
     16 C14          2.8610    -1.0260     0.1740 ca         1 UCM       0.003800
     17 C13          2.8170     0.3800     0.0490 cp         1 UCM      -0.081500
     18 C22          4.0160     1.0950    -0.0060 ca         1 UCM      -0.052500
     19 C21          5.2120     0.4040     0.0540 ca         1 UCM      -0.165000
     20 C20          5.2320    -0.9910     0.1680 ca         1 UCM      -0.089500
     21 C19          4.0630    -1.7260     0.2260 ca         1 UCM      -0.168000
     22 C12          1.4230     0.7430     0.0100 cp         1 UCM      -0.007500
     23 C11          0.6810     1.9230    -0.0870 ca         1 UCM      -0.121100
     24 C27          1.1240     3.3300    -0.2020 c          1 UCM       0.739100
     25 O28          2.2440     3.7780    -0.2330 o          1 UCM      -0.576500
     26 C05          1.1790    -2.9100     0.2240 c5         1 UCM       0.254800
     27 O01          0.0320    -3.0610     1.0160 os         1 UCM      -0.376600
     28 C02         -1.1170    -2.9310     0.2210 c5         1 UCM       0.254800
     29 C03         -0.7290    -3.4400    -1.1740 c5         1 UCM      -0.125400
     30 C04          0.8040    -3.4260    -1.1720 c5         1 UCM      -0.125400
     31 H18         -0.0420     5.0880    -0.3420 hn         1 UCM       0.346500
     32 H34         -4.0320    -2.8790     0.2880 ha         1 UCM       0.132000
     33 H33         -6.1440    -1.6230     0.1800 ha         1 UCM       0.131000
     34 H32         -6.1520     0.8340    -0.0240 ha         1 UCM       0.136000
     35 H31         -4.0400     2.0950    -0.1170 ha         1 UCM       0.163000
     36 H22          4.0100     2.1700    -0.0960 ha         1 UCM       0.163000
     37 H21          6.1460     0.9490     0.0090 ha         1 UCM       0.136000
     38 H20          6.1820    -1.5080     0.2100 ha         1 UCM       0.131000
     39 H19          4.0940    -2.8040     0.3050 ha         1 UCM       0.132000
     40 H05          1.9880    -3.4790     0.6810 h2         1 UCM       0.104700
     41 H02         -1.9160    -3.5150     0.6750 h2         1 UCM       0.104700
     42 H031        -1.1080    -4.4520    -1.3090 hc         1 UCM       0.073700
     43 H032        -1.1640    -2.8220    -1.9570 hc         1 UCM       0.073700
     44 H041         1.2020    -4.4310    -1.3060 hc         1 UCM       0.073700
     45 H042         1.2310    -2.8010    -1.9540 hc         1 UCM       0.073700
@<TRIPOS>BOND
     1     1     2 1   
     2     1    24 1   
     3     1    31 1   
     4     2     3 2   
     5     2     4 1   
     6     4     5 ar  
     7     4    23 ar  
     8     5     6 1   
     9     5    13 ar  
    10     6     7 ar  
    11     6    11 ar  
    12     7     8 ar  
    13     7    12 1   
    14     8     9 ar  
    15     8    32 1   
    16     9    10 ar  
    17     9    33 1   
    18    10    11 ar  
    19    10    34 1   
    20    11    35 1   
    21    12    13 1   
    22    12    28 1   
    23    13    14 ar  
    24    14    15 1   
    25    14    22 ar  
    26    15    16 1   
    27    15    26 1   
    28    16    17 ar  
    29    16    21 ar  
    30    17    18 ar  
    31    17    22 1   
    32    18    19 ar  
    33    18    36 1   
    34    19    20 ar  
    35    19    37 1   
    36    20    21 ar  
    37    20    38 1   
    38    21    39 1   
    39    22    23 ar  
    40    23    24 1   
    41    24    25 2   
    42    26    27 1   
    43    26    30 1   
    44    26    40 1   
    45    27    28 1   
    46    28    29 1   
    47    28    41 1   
    48    29    30 1   
    49    29    42 1   
    50    29    43 1   
    51    30    44 1   
    52    30    45 1   
@<TRIPOS>SUBSTRUCTURE
     1 UCM         1 TEMP              0 ****  ****    0 ROOT
