@<TRIPOS>MOLECULE
UCM
   45    52     1     0     0
SMALL
No Charge or Current Charge


@<TRIPOS>ATOM
      1 N18         -0.0120     4.0750    -0.1880 ns         1 UCM      -0.492500
      2 C29         -1.1710     3.3500    -0.1490 c          1 UCM       0.596600
      3 O30         -2.3040     3.7960    -0.1930 o          1 UCM      -0.501000
      4 C10         -0.6900     1.9410    -0.0430 ca         1 UCM      -0.121100
      5 C09         -1.4230     0.7230     0.0250 cp         1 UCM      -0.007500
      6 C15         -2.8330     0.3190     0.0110 cp         1 UCM      -0.081500
      7 C16         -2.8780    -1.0800     0.0920 ca         1 UCM       0.003800
      8 C34         -4.0780    -1.8040     0.0860 ca         1 UCM      -0.150000
      9 C33         -5.2820    -1.0770    -0.0000 ca         1 UCM      -0.071500
     10 C32         -5.2620     0.3360    -0.0800 ca         1 UCM      -0.147000
     11 C31         -4.0410     1.0450    -0.0770 ca         1 UCM      -0.034500
     12 N17         -1.5480    -1.5360     0.1700 na         1 UCM      -0.113100
     13 C08         -0.6640    -0.4500     0.1120 ca         1 UCM      -0.012700
     14 C07          0.7320    -0.4280     0.1240 ca         1 UCM      -0.012700
     15 N06          1.6310    -1.4910     0.1700 na         1 UCM      -0.113100
     16 C14          2.9570    -1.0170     0.1440 ca         1 UCM       0.003800
     17 C13          2.8870     0.3820     0.0730 cp         1 UCM      -0.081500
     18 C22          4.0820     1.1320     0.0320 ca         1 UCM      -0.034500
     19 C21          5.3160     0.4460     0.0610 ca         1 UCM      -0.147000
     20 C20          5.3610    -0.9670     0.1290 ca         1 UCM      -0.071500
     21 C19          4.1690    -1.7180     0.1710 ca         1 UCM      -0.150000
     22 C12          1.4680     0.7580     0.0540 cp         1 UCM      -0.007500
     23 C11          0.7100     1.9580    -0.0270 ca         1 UCM      -0.121100
     24 C27          1.1620     3.3770    -0.1250 c          1 UCM       0.596600
     25 O28          2.2850     3.8480    -0.1470 o          1 UCM      -0.501000
     26 C05          1.2010    -2.8940     0.1460 c5         1 UCM       0.307300
     27 O01          0.0960    -3.0710     1.0670 os         1 UCM      -0.423000
     28 C02         -1.1440    -2.9480     0.3350 c5         1 UCM       0.307300
     29 C03         -0.8360    -3.7380    -0.9580 c5         1 UCM      -0.125400
     30 C04          0.6590    -3.3810    -1.2360 c5         1 UCM      -0.125400
     31 H18         -0.0230     5.0810    -0.2610 hn         1 UCM       0.346500
     32 H34         -4.0880    -2.8890     0.1450 ha         1 UCM       0.114000
     33 H33         -6.2330    -1.6050    -0.0070 ha         1 UCM       0.113000
     34 H32         -6.1990     0.8830    -0.1470 ha         1 UCM       0.118000
     35 H31         -4.0510     2.1260    -0.1430 ha         1 UCM       0.145000
     36 H22          4.0720     2.2140    -0.0220 ha         1 UCM       0.145000
     37 H21          6.2440     1.0110     0.0290 ha         1 UCM       0.118000
     38 H20          6.3220    -1.4760     0.1490 ha         1 UCM       0.113000
     39 H19          4.1990    -2.8040     0.2220 ha         1 UCM       0.114000
     40 H05          2.0600    -3.4910     0.4750 h2         1 UCM       0.104700
     41 H02         -1.9570    -3.4230     0.8990 h2         1 UCM       0.104700
     42 H031        -0.9580    -4.8130    -0.7840 hc         1 UCM       0.073700
     43 H032        -1.5010    -3.4650    -1.7860 hc         1 UCM       0.073700
     44 H041         1.2220    -4.2430    -1.6100 hc         1 UCM       0.073700
     45 H042         0.7470    -2.5940    -1.9950 hc         1 UCM       0.073700
@<TRIPOS>BOND
     1     1     2 1   
     2     1    24 1   
     3     1    31 1   
     4     2     3 2   
     5     2     4 1   
     6     4     5 ar  
     7     4    23 ar  
     8     5     6 1   
     9     5    13 ar  
    10     6     7 ar  
    11     6    11 ar  
    12     7     8 ar  
    13     7    12 1   
    14     8     9 ar  
    15     8    32 1   
    16     9    10 ar  
    17     9    33 1   
    18    10    11 ar  
    19    10    34 1   
    20    11    35 1   
    21    12    13 1   
    22    12    28 1   
    23    13    14 ar  
    24    14    15 1   
    25    14    22 ar  
    26    15    16 1   
    27    15    26 1   
    28    16    17 ar  
    29    16    21 ar  
    30    17    18 ar  
    31    17    22 1   
    32    18    19 ar  
    33    18    36 1   
    34    19    20 ar  
    35    19    37 1   
    36    20    21 ar  
    37    20    38 1   
    38    21    39 1   
    39    22    23 ar  
    40    23    24 1   
    41    24    25 2   
    42    26    27 1   
    43    26    30 1   
    44    26    40 1   
    45    27    28 1   
    46    28    29 1   
    47    28    41 1   
    48    29    30 1   
    49    29    42 1   
    50    29    43 1   
    51    30    44 1   
    52    30    45 1   
@<TRIPOS>SUBSTRUCTURE
     1 UCM         1 TEMP              0 ****  ****    0 ROOT
