@<TRIPOS>MOLECULE
UCN
   62    69     1     0     0
SMALL
abcg2


@<TRIPOS>ATOM
      1 O37          4.3400     1.1770     0.3020 oh         1 UCN      -0.637000
      2 C9           3.9140     0.0290     0.9740 c5         1 UCN       0.384000
      3 N1           3.9900     0.1450     2.4100 ns         1 UCN      -0.550900
      4 C8           2.7970     0.0480     3.0460 c          1 UCN       0.596600
      5 O5           2.6320     0.0800     4.2540 o          1 UCN      -0.553000
      6 C7           1.7840    -0.1180     1.9800 ca         1 UCN      -0.127600
      7 C6           0.3870    -0.2380     2.0430 cp         1 UCN      -0.016000
      8 C5          -0.5960    -0.2050     3.0960 cp         1 UCN      -0.078000
      9 C20         -1.8510    -0.3660     2.4720 ca         1 UCN      -0.005200
     10 C1          -3.0410    -0.3870     3.1960 ca         1 UCN      -0.160000
     11 C2          -2.9570    -0.2440     4.5700 ca         1 UCN      -0.077000
     12 C3          -1.7210    -0.0790     5.2080 ca         1 UCN      -0.155000
     13 C4          -0.5430    -0.0580     4.4840 ca         1 UCN      -0.033000
     14 N3          -1.6640    -0.4900     1.1210 na         1 UCN      -0.103600
     15 C19         -0.3280    -0.4150     0.8420 ca         1 UCN       0.007800
     16 C18          0.3340    -0.4720    -0.3930 ca         1 UCN       0.032800
     17 N2          -0.1450    -0.6330    -1.6750 na         1 UCN      -0.099600
     18 C17          0.9310    -0.5580    -2.5510 ca         1 UCN       0.017800
     19 C12          2.1170    -0.3900    -1.8040 cp         1 UCN      -0.077000
     20 C13          3.3550    -0.3160    -2.4450 ca         1 UCN      -0.052000
     21 C14          3.4080    -0.4030    -3.8210 ca         1 UCN      -0.146000
     22 C15          2.2280    -0.5360    -4.5580 ca         1 UCN      -0.093000
     23 C16          0.9910    -0.6050    -3.9460 ca         1 UCN      -0.127000
     24 C11          1.7320    -0.3230    -0.4240 cp         1 UCN      -0.054000
     25 C10          2.4360    -0.1600     0.7700 ca         1 UCN      -0.057300
     26 C21         -1.5540    -0.9250    -2.0050 c6         1 UCN       0.364000
     27 O4          -2.1510    -1.5190    -0.8800 os         1 UCN      -0.452000
     28 C25         -2.7060    -0.7670     0.1580 c6         1 UCN       0.341300
     29 C24         -3.4580     0.4670    -0.3060 c6         1 UCN      -0.123400
     30 C23         -2.6730     1.2880    -1.3170 c6         1 UCN       0.158500
     31 N4          -1.4780     1.8700    -0.7570 n7         1 UCN      -0.863400
     32 C28         -1.7070     2.8600     0.2690 c3         1 UCN       0.149100
     33 C22         -2.3210     0.3380    -2.4600 c6         1 UCN       0.133300
     34 O6          -1.5510     0.9450    -3.4570 os         1 UCN      -0.440000
     35 C27         -2.2780     1.7850    -4.3260 c3         1 UCN       0.139900
     36 C26         -1.6510    -2.0120    -3.0750 c3         1 UCN      -0.099100
     37 H37          5.3000     1.1570     0.2320 ho         1 UCN       0.442000
     38 H9           4.4840    -0.8480     0.6430 h2         1 UCN       0.048700
     39 HN1          4.8660     0.1490     2.9080 hn         1 UCN       0.323500
     40 H1          -4.0040    -0.5060     2.7160 ha         1 UCN       0.107000
     41 H2          -3.8640    -0.2560     5.1600 ha         1 UCN       0.108000
     42 H3          -1.6900     0.0320     6.2840 ha         1 UCN       0.114000
     43 H4           0.4060     0.0690     4.9830 ha         1 UCN       0.148000
     44 H13          4.2630    -0.1770    -1.8750 ha         1 UCN       0.112000
     45 H14          4.3610    -0.3480    -4.3320 ha         1 UCN       0.111000
     46 H15          2.2750    -0.5720    -5.6380 ha         1 UCN       0.107000
     47 H16          0.1120    -0.6600    -4.5640 ha         1 UCN       0.118000
     48 H25         -3.4140    -1.4390     0.6510 h2         1 UCN       0.087700
     49 H241        -3.7520     1.0570     0.5640 hc         1 UCN       0.065700
     50 H242        -4.3890     0.1390    -0.7750 hc         1 UCN       0.065700
     51 H23         -3.3630     2.0550    -1.7130 h1         1 UCN       0.025700
     52 HN4         -0.9300     2.2780    -1.5030 hn         1 UCN       0.436000
     53 H281        -0.7710     3.3720     0.4850 h1         1 UCN       0.033367
     54 H282        -2.4540     3.6210    -0.0010 h1         1 UCN       0.033367
     55 H283        -2.0370     2.3910     1.1980 h1         1 UCN       0.033367
     56 H22         -3.2750    -0.0200    -2.8800 h1         1 UCN       0.045700
     57 H271        -1.5950     2.1130    -5.1070 h1         1 UCN       0.034700
     58 H272        -3.1150     1.2560    -4.7920 h1         1 UCN       0.034700
     59 H273        -2.6720     2.6710    -3.8210 h1         1 UCN       0.034700
     60 H261        -0.9730    -2.8370    -2.8570 hc         1 UCN       0.061033
     61 H262        -2.6710    -2.3940    -3.0800 hc         1 UCN       0.061033
     62 H263        -1.4420    -1.6470    -4.0740 hc         1 UCN       0.061033
@<TRIPOS>BOND
     1     1     2 1   
     2     1    37 1   
     3     2     3 1   
     4     2    25 1   
     5     2    38 1   
     6     3     4 1   
     7     3    39 1   
     8     4     5 2   
     9     4     6 1   
    10     6     7 ar  
    11     6    25 ar  
    12     7     8 1   
    13     7    15 ar  
    14     8     9 ar  
    15     8    13 ar  
    16     9    10 ar  
    17     9    14 1   
    18    10    11 ar  
    19    10    40 1   
    20    11    12 ar  
    21    11    41 1   
    22    12    13 ar  
    23    12    42 1   
    24    13    43 1   
    25    14    15 1   
    26    14    28 1   
    27    15    16 ar  
    28    16    17 1   
    29    16    24 ar  
    30    17    18 1   
    31    17    26 1   
    32    18    19 ar  
    33    18    23 ar  
    34    19    20 ar  
    35    19    24 1   
    36    20    21 ar  
    37    20    44 1   
    38    21    22 ar  
    39    21    45 1   
    40    22    23 ar  
    41    22    46 1   
    42    23    47 1   
    43    24    25 ar  
    44    26    27 1   
    45    26    33 1   
    46    26    36 1   
    47    27    28 1   
    48    28    29 1   
    49    28    48 1   
    50    29    30 1   
    51    29    49 1   
    52    29    50 1   
    53    30    31 1   
    54    30    33 1   
    55    30    51 1   
    56    31    32 1   
    57    31    52 1   
    58    32    53 1   
    59    32    54 1   
    60    32    55 1   
    61    33    34 1   
    62    33    56 1   
    63    34    35 1   
    64    35    57 1   
    65    35    58 1   
    66    35    59 1   
    67    36    60 1   
    68    36    61 1   
    69    36    62 1   
@<TRIPOS>SUBSTRUCTURE
     1 UCN         1 TEMP              0 ****  ****    0 ROOT
