@<TRIPOS>MOLECULE
UCN
   62    69     1     0     0
SMALL
No Charge or Current Charge


@<TRIPOS>ATOM
      1 O37          4.5880     0.8960     0.4800 oh         1 UCN      -0.637000
      2 C9           4.0210    -0.2890     1.0010 c5         1 UCN       0.384000
      3 N1           4.1480    -0.2780     2.4600 ns         1 UCN      -0.550900
      4 C8           2.9140    -0.2630     3.0930 c          1 UCN       0.596600
      5 O5           2.7650    -0.2490     4.3030 o          1 UCN      -0.553000
      6 C7           1.8770    -0.2920     2.0320 ca         1 UCN      -0.127600
      7 C6           0.4560    -0.2910     2.1140 cp         1 UCN      -0.016000
      8 C5          -0.5530    -0.2290     3.1840 cp         1 UCN      -0.078000
      9 C20         -1.8180    -0.2530     2.5810 ca         1 UCN      -0.005200
     10 C1          -3.0150    -0.2010     3.3060 ca         1 UCN      -0.160000
     11 C2          -2.9230    -0.1200     4.7100 ca         1 UCN      -0.077000
     12 C3          -1.6590    -0.0930     5.3450 ca         1 UCN      -0.155000
     13 C4          -0.4650    -0.1450     4.5900 ca         1 UCN      -0.033000
     14 N3          -1.5850    -0.3340     1.1990 na         1 UCN      -0.103600
     15 C19         -0.2330    -0.3510     0.8900 ca         1 UCN       0.007800
     16 C18          0.4250    -0.4100    -0.3400 ca         1 UCN       0.032800
     17 N2          -0.0480    -0.4580    -1.6580 na         1 UCN      -0.099600
     18 C17          1.0290    -0.4130    -2.5890 ca         1 UCN       0.017800
     19 C12          2.2010    -0.4160    -1.8180 cp         1 UCN      -0.077000
     20 C13          3.4650    -0.3970    -2.4410 ca         1 UCN      -0.052000
     21 C14          3.5250    -0.3550    -3.8480 ca         1 UCN      -0.146000
     22 C15          2.3400    -0.3150    -4.6170 ca         1 UCN      -0.093000
     23 C16          1.0750    -0.3360    -3.9930 ca         1 UCN      -0.127000
     24 C11          1.8210    -0.3990    -0.4110 cp         1 UCN      -0.054000
     25 C10          2.5260    -0.3290     0.8160 ca         1 UCN      -0.057300
     26 C21         -1.4500    -0.9180    -1.9900 c6         1 UCN       0.364000
     27 O4          -2.0860    -1.5690    -0.8420 os         1 UCN      -0.452000
     28 C25         -2.6280    -0.7620     0.2430 c6         1 UCN       0.341300
     29 C24         -3.5160     0.3890    -0.2780 c6         1 UCN      -0.123400
     30 C23         -2.8520     1.2030    -1.4110 c6         1 UCN       0.158500
     31 N4          -1.7690     2.0970    -0.9330 n7         1 UCN      -0.863400
     32 C28         -2.1460     3.2640    -0.1130 c3         1 UCN       0.149100
     33 C22         -2.3760     0.2350    -2.5430 c6         1 UCN       0.133300
     34 O6          -1.7580     0.9590    -3.6430 os         1 UCN      -0.440000
     35 C27         -2.5850     1.8690    -4.3930 c3         1 UCN       0.139900
     36 C26         -1.4330    -2.0980    -3.0090 c3         1 UCN      -0.099100
     37 H37          5.5320     0.8740     0.7370 ho         1 UCN       0.442000
     38 H9           4.4870    -1.1760     0.5520 h2         1 UCN       0.048700
     39 HN1          5.0000    -0.2970     3.0030 hn         1 UCN       0.323500
     40 H1          -3.9830    -0.2190     2.8120 ha         1 UCN       0.107000
     41 H2          -3.8300    -0.0770     5.3100 ha         1 UCN       0.108000
     42 H3          -1.6040    -0.0280     6.4290 ha         1 UCN       0.114000
     43 H4           0.4910    -0.1180     5.1000 ha         1 UCN       0.148000
     44 H13          4.3790    -0.4080    -1.8550 ha         1 UCN       0.112000
     45 H14          4.4920    -0.3370    -4.3450 ha         1 UCN       0.111000
     46 H15          2.4030    -0.2620    -5.7020 ha         1 UCN       0.107000
     47 H16          0.1810    -0.2810    -4.6020 ha         1 UCN       0.118000
     48 H25         -3.2700    -1.4200     0.8460 h2         1 UCN       0.087700
     49 H241        -3.8210     1.0400     0.5500 hc         1 UCN       0.065700
     50 H242        -4.4460    -0.0480    -0.6630 hc         1 UCN       0.065700
     51 H23         -3.6340     1.8460    -1.8390 h1         1 UCN       0.025700
     52 HN4         -1.2720     2.4420    -1.7650 hn         1 UCN       0.436000
     53 H281        -1.2560     3.8540     0.1440 h1         1 UCN       0.033367
     54 H282        -2.8430     3.9160    -0.6560 h1         1 UCN       0.033367
     55 H283        -2.6230     2.9530     0.8260 h1         1 UCN       0.033367
     56 H22         -3.2780    -0.2510    -2.9430 h1         1 UCN       0.045700
     57 H271        -2.0230     2.2770    -5.2430 h1         1 UCN       0.034700
     58 H272        -3.4720     1.3560    -4.7860 h1         1 UCN       0.034700
     59 H273        -2.9130     2.7120    -3.7720 h1         1 UCN       0.034700
     60 H261        -0.6550    -2.8290    -2.7570 hc         1 UCN       0.061033
     61 H262        -2.3920    -2.6300    -3.0120 hc         1 UCN       0.061033
     62 H263        -1.2680    -1.7680    -4.0370 hc         1 UCN       0.061033
@<TRIPOS>BOND
     1     1     2 1   
     2     1    37 1   
     3     2     3 1   
     4     2    25 1   
     5     2    38 1   
     6     3     4 1   
     7     3    39 1   
     8     4     5 2   
     9     4     6 1   
    10     6     7 ar  
    11     6    25 ar  
    12     7     8 1   
    13     7    15 ar  
    14     8     9 ar  
    15     8    13 ar  
    16     9    10 ar  
    17     9    14 1   
    18    10    11 ar  
    19    10    40 1   
    20    11    12 ar  
    21    11    41 1   
    22    12    13 ar  
    23    12    42 1   
    24    13    43 1   
    25    14    15 1   
    26    14    28 1   
    27    15    16 ar  
    28    16    17 1   
    29    16    24 ar  
    30    17    18 1   
    31    17    26 1   
    32    18    19 ar  
    33    18    23 ar  
    34    19    20 ar  
    35    19    24 1   
    36    20    21 ar  
    37    20    44 1   
    38    21    22 ar  
    39    21    45 1   
    40    22    23 ar  
    41    22    46 1   
    42    23    47 1   
    43    24    25 ar  
    44    26    27 1   
    45    26    33 1   
    46    26    36 1   
    47    27    28 1   
    48    28    29 1   
    49    28    48 1   
    50    29    30 1   
    51    29    49 1   
    52    29    50 1   
    53    30    31 1   
    54    30    33 1   
    55    30    51 1   
    56    31    32 1   
    57    31    52 1   
    58    32    53 1   
    59    32    54 1   
    60    32    55 1   
    61    33    34 1   
    62    33    56 1   
    63    34    35 1   
    64    35    57 1   
    65    35    58 1   
    66    35    59 1   
    67    36    60 1   
    68    36    61 1   
    69    36    62 1   
@<TRIPOS>SUBSTRUCTURE
     1 UCN         1 TEMP              0 ****  ****    0 ROOT
