@<TRIPOS>MOLECULE
UCO
   97   101     1     0     0
SMALL
abcg2


@<TRIPOS>ATOM
      1 CBZ         10.9270    -8.7680    -5.0220 c3         1 UCO       0.145400
      2 OBY         12.1450    -8.0800    -4.8160 os         1 UCO      -0.319600
      3 CBS         12.7550    -7.5240    -5.8760 ca         1 UCO       0.152600
      4 CBR         12.2490    -7.5430    -7.1760 ca         1 UCO      -0.213000
      5 CBT         13.9820    -6.9110    -5.6160 ca         1 UCO       0.046100
      6 OBX         14.5050    -6.9310    -4.3640 os         1 UCO      -0.340100
      7 CCA         14.1570    -5.8100    -3.5630 c3         1 UCO       0.143900
      8 CBU         14.6910    -6.3060    -6.6600 ca         1 UCO       0.152600
      9 OBW         15.8700    -5.7580    -6.3200 os         1 UCO      -0.319600
     10 CCB         16.7130    -5.2810    -7.3500 c3         1 UCO       0.145400
     11 CBV         14.1680    -6.3030    -7.9490 ca         1 UCO      -0.213000
     12 CBK         12.9530    -6.9280    -8.2000 ca         1 UCO      -0.021300
     13 CBJ         12.4080    -6.9610    -9.6160 c3         1 UCO      -0.018100
     14 CBL         13.2950    -7.7680   -10.5230 cc         1 UCO      -0.182300
     15 SBP         13.0730    -7.7320   -12.2360 ss         1 UCO       0.257000
     16 CBO         14.2570    -8.9570   -12.4600 cc         1 UCO      -0.040000
     17 CLBQ        14.6610    -9.4860   -14.0350 cl         1 UCO      -0.158000
     18 CBN         14.8030    -9.3720   -11.2900 cd         1 UCO      -0.122000
     19 CBM         14.2380    -8.6870   -10.1790 cd         1 UCO      -0.124000
     20 CBH         12.2510    -5.5220   -10.1230 c          1 UCO       0.616100
     21 OBI         13.1380    -5.0220   -10.7980 o          1 UCO      -0.601100
     22 N           11.1320    -4.8470    -9.7830 n          1 UCO      -0.387800
     23 CBF         10.0540    -5.3270    -8.9270 c6         1 UCO       0.096000
     24 CBE          8.7090    -5.2000    -9.6240 c6         1 UCO      -0.094400
     25 CBD          8.4620    -3.7630   -10.0600 c6         1 UCO      -0.077400
     26 CB           9.6270    -3.2640   -10.9040 c6         1 UCO      -0.072400
     27 CA          10.9760    -3.4690   -10.2200 c6         1 UCO       0.041700
     28 C           11.2090    -2.5040    -9.0620 c          1 UCO       0.582100
     29 O           10.5640    -1.5080    -8.8650 o          1 UCO      -0.479000
     30 OAO         12.2500    -2.8770    -8.3330 os         1 UCO      -0.442100
     31 CAM         12.5960    -2.1010    -7.1700 c3         1 UCO       0.225600
     32 CAN         11.7340    -2.5250    -6.0100 ca         1 UCO      -0.094300
     33 CAP         11.0930    -1.5670    -5.2450 ca         1 UCO      -0.146000
     34 CAT         11.6060    -3.8750    -5.6820 ca         1 UCO      -0.172000
     35 CAS         10.8330    -4.2330    -4.5910 ca         1 UCO      -0.092000
     36 CAR         10.1980    -3.2760    -3.8070 ca         1 UCO      -0.174000
     37 CAQ         10.3290    -1.9270    -4.1300 ca         1 UCO       0.202100
     38 OAU          9.7360    -0.9150    -3.4780 os         1 UCO      -0.333100
     39 CAV          9.0220    -1.1820    -2.2880 c3         1 UCO       0.000600
     40 CAW          9.9050    -1.5190    -1.0660 c          1 UCO       0.702000
     41 OAY         11.1360    -1.4340    -1.2020 o          1 UCO      -0.718000
     42 OAX          9.2550    -1.8210    -0.0470 o          1 UCO      -0.718000
     43 CAL         14.0790    -2.3440    -6.9280 c3         1 UCO      -0.067400
     44 CAK         14.6300    -1.5430    -5.7490 c3         1 UCO      -0.026100
     45 CAD         14.4230    -0.0530    -5.8520 ca         1 UCO      -0.082300
     46 CAC         14.8060     0.6430    -7.0060 ca         1 UCO      -0.174000
     47 CAE         13.8490     0.6600    -4.8170 ca         1 UCO      -0.088000
     48 CAF         13.6560     2.0390    -4.9130 ca         1 UCO      -0.161000
     49 CAA         14.0280     2.7240    -6.0550 ca         1 UCO       0.100100
     50 OAG         13.8780     4.0500    -6.2500 os         1 UCO      -0.330100
     51 CAH         13.2790     4.8050    -5.2200 c3         1 UCO       0.146900
     52 CAB         14.6120     2.0080    -7.1220 ca         1 UCO       0.099100
     53 OAI         14.9380     2.7430    -8.2030 os         1 UCO      -0.329100
     54 CAJ         15.5220     2.0850    -9.3070 c3         1 UCO       0.149900
     55 HB6         10.6210    -9.1470    -4.0500 h1         1 UCO       0.040700
     56 HB7         10.1440    -8.1080    -5.4040 h1         1 UCO       0.040700
     57 HBZ         11.0450    -9.6120    -5.7070 h1         1 UCO       0.040700
     58 HBR         11.3140    -8.0390    -7.3990 ha         1 UCO       0.127000
     59 HCC         14.6810    -5.9170    -2.6160 h1         1 UCO       0.043700
     60 HCA         14.4600    -4.8670    -4.0270 h1         1 UCO       0.043700
     61 HCB         13.0830    -5.7690    -3.3680 h1         1 UCO       0.043700
     62 HCD         17.6330    -4.9570    -6.8690 h1         1 UCO       0.040700
     63 HCE         16.9490    -6.0630    -8.0760 h1         1 UCO       0.040700
     64 HCF         16.2760    -4.4300    -7.8790 h1         1 UCO       0.040700
     65 HBV         14.7070    -5.8380    -8.7640 ha         1 UCO       0.127000
     66 HBJ         11.4380    -7.4630    -9.6010 hc         1 UCO       0.073700
     67 HBN         15.5740   -10.1240   -11.2140 ha         1 UCO       0.141000
     68 HBM         14.5300    -8.8790    -9.1560 ha         1 UCO       0.146000
     69 HB5         10.2260    -6.3570    -8.6360 h1         1 UCO       0.061700
     70 HBF         10.0520    -4.7470    -7.9970 h1         1 UCO       0.061700
     71 HB4          7.9270    -5.5400    -8.9420 hc         1 UCO       0.044200
     72 HBE          8.6930    -5.8650   -10.4930 hc         1 UCO       0.044200
     73 HB3          8.3370    -3.1300    -9.1780 hc         1 UCO       0.054700
     74 HBD          7.5340    -3.6910   -10.6300 hc         1 UCO       0.054700
     75 HB2          9.5070    -2.2130   -11.1650 hc         1 UCO       0.054700
     76 HB1          9.6570    -3.8180   -11.8460 hc         1 UCO       0.054700
     77 HA          11.7680    -3.2570   -10.9430 h1         1 UCO       0.102700
     78 HAR         12.4340    -1.0410    -7.3810 h1         1 UCO       0.075700
     79 HAS         11.1870    -0.5180    -5.5020 ha         1 UCO       0.123000
     80 HAV         12.1050    -4.6380    -6.2670 ha         1 UCO       0.103000
     81 HAU         10.7260    -5.2790    -4.3330 ha         1 UCO       0.095000
     82 HAT          9.6120    -3.6010    -2.9580 ha         1 UCO       0.135000
     83 HAW          8.4700    -0.2640    -2.0760 h1         1 UCO       0.034200
     84 HAX          8.2720    -1.9660    -2.4420 h1         1 UCO       0.034200
     85 HAP         14.2520    -3.4060    -6.7390 hc         1 UCO       0.046200
     86 HAQ         14.6250    -2.0910    -7.8400 hc         1 UCO       0.046200
     87 HAN         14.1810    -1.8990    -4.8200 hc         1 UCO       0.058200
     88 HAO         15.6990    -1.7630    -5.6720 hc         1 UCO       0.058200
     89 HAC         15.2590     0.0920    -7.8210 ha         1 UCO       0.110000
     90 HAE         13.5320     0.1480    -3.9170 ha         1 UCO       0.146000
     91 HAF         13.2040     2.5600    -4.0800 ha         1 UCO       0.126000
     92 HAJ         13.2390     5.8330    -5.5710 h1         1 UCO       0.036367
     93 HAH         12.2620     4.4680    -5.0020 h1         1 UCO       0.036367
     94 HAI         13.8620     4.7740    -4.2950 h1         1 UCO       0.036367
     95 HAK         15.7010     2.8470   -10.0620 h1         1 UCO       0.033700
     96 HAL         16.4760     1.6170    -9.0480 h1         1 UCO       0.033700
     97 HAM         14.8610     1.3220    -9.7270 h1         1 UCO       0.033700
@<TRIPOS>BOND
     1     1     2 1   
     2     1    55 1   
     3     1    56 1   
     4     1    57 1   
     5     2     3 1   
     6     3     4 ar  
     7     3     5 ar  
     8     4    12 ar  
     9     4    58 1   
    10     5     6 1   
    11     5     8 ar  
    12     6     7 1   
    13     7    59 1   
    14     7    60 1   
    15     7    61 1   
    16     8     9 1   
    17     8    11 ar  
    18     9    10 1   
    19    10    62 1   
    20    10    63 1   
    21    10    64 1   
    22    11    12 ar  
    23    11    65 1   
    24    12    13 1   
    25    13    14 1   
    26    13    20 1   
    27    13    66 1   
    28    14    15 1   
    29    14    19 2   
    30    15    16 1   
    31    16    17 1   
    32    16    18 2   
    33    18    19 1   
    34    18    67 1   
    35    19    68 1   
    36    20    21 2   
    37    20    22 1   
    38    22    23 1   
    39    22    27 1   
    40    23    24 1   
    41    23    69 1   
    42    23    70 1   
    43    24    25 1   
    44    24    71 1   
    45    24    72 1   
    46    25    26 1   
    47    25    73 1   
    48    25    74 1   
    49    26    27 1   
    50    26    75 1   
    51    26    76 1   
    52    27    28 1   
    53    27    77 1   
    54    28    29 2   
    55    28    30 1   
    56    30    31 1   
    57    31    32 1   
    58    31    43 1   
    59    31    78 1   
    60    32    33 ar  
    61    32    34 ar  
    62    33    37 ar  
    63    33    79 1   
    64    34    35 ar  
    65    34    80 1   
    66    35    36 ar  
    67    35    81 1   
    68    36    37 ar  
    69    36    82 1   
    70    37    38 1   
    71    38    39 1   
    72    39    40 1   
    73    39    83 1   
    74    39    84 1   
    75    40    41 1   
    76    40    42 1   
    77    43    44 1   
    78    43    85 1   
    79    43    86 1   
    80    44    45 1   
    81    44    87 1   
    82    44    88 1   
    83    45    46 ar  
    84    45    47 ar  
    85    46    52 ar  
    86    46    89 1   
    87    47    48 ar  
    88    47    90 1   
    89    48    49 ar  
    90    48    91 1   
    91    49    50 1   
    92    49    52 ar  
    93    50    51 1   
    94    51    92 1   
    95    51    93 1   
    96    51    94 1   
    97    52    53 1   
    98    53    54 1   
    99    54    95 1   
   100    54    96 1   
   101    54    97 1   
@<TRIPOS>SUBSTRUCTURE
     1 UCO         1 TEMP              0 ****  ****    0 ROOT
