@<TRIPOS>MOLECULE
UCO
   97   101     1     0     0
SMALL
No Charge or Current Charge


@<TRIPOS>ATOM
      1 CBZ         12.7130    -7.4210    -4.8430 c3         1 UCO       0.145400
      2 OBY         13.8900    -6.6470    -5.1260 os         1 UCO      -0.319600
      3 CBS         14.2510    -6.2730    -6.4120 ca         1 UCO       0.152600
      4 CBR         13.4960    -6.6790    -7.5320 ca         1 UCO      -0.213000
      5 CBT         15.3950    -5.4550    -6.5760 ca         1 UCO       0.046100
      6 OBX         16.0700    -5.0940    -5.4080 os         1 UCO      -0.340100
      7 CCA         17.1590    -4.1560    -5.3390 c3         1 UCO       0.143900
      8 CBU         15.7820    -5.0590    -7.8930 ca         1 UCO       0.152600
      9 OBW         16.9080    -4.2790    -8.0960 os         1 UCO      -0.319600
     10 CCB         17.3800    -3.9030    -9.4030 c3         1 UCO       0.145400
     11 CBV         15.0070    -5.4820    -8.9970 ca         1 UCO      -0.213000
     12 CBK         13.8690    -6.2870    -8.8270 ca         1 UCO      -0.021300
     13 CBJ         13.0280    -6.7150   -10.0360 c3         1 UCO      -0.018100
     14 CBL         13.8340    -7.4530   -11.0900 cc         1 UCO      -0.182300
     15 SBP         13.2850    -7.5480   -12.7700 ss         1 UCO       0.257000
     16 CBO         14.6880    -8.5180   -13.2010 cc         1 UCO      -0.040000
     17 ClBQ        14.9670    -9.0900   -14.8170 cl         1 UCO      -0.158000
     18 CBN         15.4920    -8.7560   -12.1190 cd         1 UCO      -0.122000
     19 CBM         15.0050    -8.1580   -10.9230 cd         1 UCO      -0.124000
     20 CBH         12.2620    -5.4600   -10.5600 c          1 UCO       0.616100
     21 OBI         12.8540    -4.6250   -11.2370 o          1 UCO      -0.601100
     22 N           10.9020    -5.2250   -10.2020 n          1 UCO      -0.387800
     23 CBF         10.0920    -6.2330    -9.4420 c6         1 UCO       0.096000
     24 CBE          8.5610    -6.0520    -9.5250 c6         1 UCO      -0.094400
     25 CBD          8.1370    -4.6180    -9.1940 c6         1 UCO      -0.077400
     26 CB           8.8490    -3.6550   -10.1610 c6         1 UCO      -0.072400
     27 CA          10.4040    -3.7950   -10.1690 c6         1 UCO       0.041700
     28 C           11.0970    -2.9680    -9.0410 c          1 UCO       0.582100
     29 O           12.2340    -2.5300    -9.1600 o          1 UCO      -0.479000
     30 OAO         10.4250    -2.9870    -7.8450 os         1 UCO      -0.442100
     31 CAM         11.0690    -2.4770    -6.6620 c3         1 UCO       0.225600
     32 CAN          9.9790    -2.1870    -5.6280 ca         1 UCO      -0.094300
     33 CAP          9.8450    -0.8910    -5.0900 ca         1 UCO      -0.146000
     34 CAT          9.1040    -3.2020    -5.1920 ca         1 UCO      -0.172000
     35 CAS          8.1160    -2.9270    -4.2340 ca         1 UCO      -0.092000
     36 CAR          7.9930    -1.6340    -3.6980 ca         1 UCO      -0.174000
     37 CAQ          8.8650    -0.6090    -4.1240 ca         1 UCO       0.202100
     38 OAU          8.7910     0.6860    -3.6430 os         1 UCO      -0.333100
     39 CAV          7.8910     1.0800    -2.5750 c3         1 UCO       0.000600
     40 CAW          8.2830     0.5320    -1.1670 c          1 UCO       0.702000
     41 OAY          9.3720    -0.0040    -1.0050 o          1 UCO      -0.718000
     42 OAX          7.4670     0.6660    -0.2650 o          1 UCO      -0.718000
     43 CAL         12.0960    -3.5320    -6.1650 c3         1 UCO      -0.067400
     44 CAK         12.8130    -3.1380    -4.8510 c3         1 UCO      -0.026100
     45 CAD         13.4590    -1.7570    -4.9070 ca         1 UCO      -0.082300
     46 CAC         14.4040    -1.4490    -5.9050 ca         1 UCO      -0.174000
     47 CAE         13.1000    -0.7730    -3.9680 ca         1 UCO      -0.088000
     48 CAF         13.6670     0.5100    -4.0260 ca         1 UCO      -0.161000
     49 CAA         14.6070     0.8280    -5.0310 ca         1 UCO       0.100100
     50 OAG         15.1820     2.0860    -5.1220 os         1 UCO      -0.330100
     51 CAH         14.8610     3.1490    -4.2080 c3         1 UCO       0.146900
     52 CAB         14.9780    -0.1590    -5.9770 ca         1 UCO       0.099100
     53 OAI         15.8940     0.1780    -6.9600 os         1 UCO      -0.329100
     54 CAJ         16.3240    -0.7550    -7.9660 c3         1 UCO       0.149900
     55 HB6         12.6190    -7.5850    -3.7620 h1         1 UCO       0.040700
     56 HB7         11.8100    -6.8990    -5.1860 h1         1 UCO       0.040700
     57 HBZ         12.7630    -8.4020    -5.3320 h1         1 UCO       0.040700
     58 HBR         12.6150    -7.3010    -7.4080 ha         1 UCO       0.127000
     59 HCC         17.4600    -4.0050    -4.2950 h1         1 UCO       0.043700
     60 HCA         18.0340    -4.5270    -5.8870 h1         1 UCO       0.043700
     61 HCB         16.8630    -3.1810    -5.7470 h1         1 UCO       0.043700
     62 HCD         18.2920    -3.3000    -9.3170 h1         1 UCO       0.040700
     63 HCE         17.6150    -4.7910   -10.0030 h1         1 UCO       0.040700
     64 HCF         16.6270    -3.3050    -9.9320 h1         1 UCO       0.040700
     65 HBV         15.2730    -5.1920   -10.0090 ha         1 UCO       0.127000
     66 HBJ         12.3150    -7.4460    -9.6580 hc         1 UCO       0.073700
     67 HBN         16.4040    -9.3420   -12.1700 ha         1 UCO       0.141000
     68 HBM         15.5150    -8.2520    -9.9680 ha         1 UCO       0.146000
     69 HB5         10.2940    -7.2410    -9.8270 h1         1 UCO       0.061700
     70 HBF         10.4010    -6.2060    -8.3870 h1         1 UCO       0.061700
     71 HB4          8.0680    -6.7560    -8.8410 hc         1 UCO       0.044200
     72 HBE          8.2190    -6.3110   -10.5370 hc         1 UCO       0.044200
     73 HB3          8.3700    -4.3840    -8.1470 hc         1 UCO       0.054700
     74 HBD          7.0490    -4.5160    -9.3000 hc         1 UCO       0.054700
     75 HB2          8.5660    -2.6170    -9.9360 hc         1 UCO       0.054700
     76 HB1          8.4800    -3.8470   -11.1780 hc         1 UCO       0.054700
     77 HA          10.7420    -3.2970   -11.0890 h1         1 UCO       0.102700
     78 HAR         11.5940    -1.5380    -6.8880 h1         1 UCO       0.075700
     79 HAS         10.5100    -0.0950    -5.4140 ha         1 UCO       0.123000
     80 HAV          9.1870    -4.2070    -5.6000 ha         1 UCO       0.103000
     81 HAU          7.4440    -3.7170    -3.9050 ha         1 UCO       0.095000
     82 HAT          7.2200    -1.4470    -2.9590 ha         1 UCO       0.135000
     83 HAW          7.8870     2.1740    -2.4930 h1         1 UCO       0.034200
     84 HAX          6.8620     0.7720    -2.8000 h1         1 UCO       0.034200
     85 HAP         11.5910    -4.4940    -6.0180 hc         1 UCO       0.046200
     86 HAQ         12.8540    -3.7010    -6.9370 hc         1 UCO       0.046200
     87 HAN         12.0910    -3.1920    -4.0270 hc         1 UCO       0.058200
     88 HAO         13.5780    -3.8900    -4.6250 hc         1 UCO       0.058200
     89 HAC         14.6750    -2.2190    -6.6200 ha         1 UCO       0.110000
     90 HAE         12.3690    -0.9980    -3.1930 ha         1 UCO       0.146000
     91 HAF         13.3600     1.2440    -3.2860 ha         1 UCO       0.126000
     92 HAJ         15.4280     4.0530    -4.4640 h1         1 UCO       0.036367
     93 HAH         13.7920     3.3940    -4.2540 h1         1 UCO       0.036367
     94 HAI         15.1160     2.8690    -3.1780 h1         1 UCO       0.036367
     95 HAK         17.0330    -0.2750    -8.6510 h1         1 UCO       0.033700
     96 HAL         16.8270    -1.6140    -7.5060 h1         1 UCO       0.033700
     97 HAM         15.4720    -1.1170    -8.5550 h1         1 UCO       0.033700
@<TRIPOS>BOND
     1     1     2 1   
     2     1    55 1   
     3     1    56 1   
     4     1    57 1   
     5     2     3 1   
     6     3     4 ar  
     7     3     5 ar  
     8     4    12 ar  
     9     4    58 1   
    10     5     6 1   
    11     5     8 ar  
    12     6     7 1   
    13     7    59 1   
    14     7    60 1   
    15     7    61 1   
    16     8     9 1   
    17     8    11 ar  
    18     9    10 1   
    19    10    62 1   
    20    10    63 1   
    21    10    64 1   
    22    11    12 ar  
    23    11    65 1   
    24    12    13 1   
    25    13    14 1   
    26    13    20 1   
    27    13    66 1   
    28    14    15 1   
    29    14    19 2   
    30    15    16 1   
    31    16    17 1   
    32    16    18 2   
    33    18    19 1   
    34    18    67 1   
    35    19    68 1   
    36    20    21 2   
    37    20    22 1   
    38    22    23 1   
    39    22    27 1   
    40    23    24 1   
    41    23    69 1   
    42    23    70 1   
    43    24    25 1   
    44    24    71 1   
    45    24    72 1   
    46    25    26 1   
    47    25    73 1   
    48    25    74 1   
    49    26    27 1   
    50    26    75 1   
    51    26    76 1   
    52    27    28 1   
    53    27    77 1   
    54    28    29 2   
    55    28    30 1   
    56    30    31 1   
    57    31    32 1   
    58    31    43 1   
    59    31    78 1   
    60    32    33 ar  
    61    32    34 ar  
    62    33    37 ar  
    63    33    79 1   
    64    34    35 ar  
    65    34    80 1   
    66    35    36 ar  
    67    35    81 1   
    68    36    37 ar  
    69    36    82 1   
    70    37    38 1   
    71    38    39 1   
    72    39    40 1   
    73    39    83 1   
    74    39    84 1   
    75    40    41 1   
    76    40    42 1   
    77    43    44 1   
    78    43    85 1   
    79    43    86 1   
    80    44    45 1   
    81    44    87 1   
    82    44    88 1   
    83    45    46 ar  
    84    45    47 ar  
    85    46    52 ar  
    86    46    89 1   
    87    47    48 ar  
    88    47    90 1   
    89    48    49 ar  
    90    48    91 1   
    91    49    50 1   
    92    49    52 ar  
    93    50    51 1   
    94    51    92 1   
    95    51    93 1   
    96    51    94 1   
    97    52    53 1   
    98    53    54 1   
    99    54    95 1   
   100    54    96 1   
   101    54    97 1   
@<TRIPOS>SUBSTRUCTURE
     1 UCO         1 TEMP              0 ****  ****    0 ROOT
