@<TRIPOS>MOLECULE
UCP
   41    42     1     0     0
SMALL
abcg2


@<TRIPOS>ATOM
      1 N1          -0.3450     0.3050     5.0550 n          1 UCP      -0.299000
      2 C2          -0.2260    -1.0700     5.0080 c          1 UCP       0.623000
      3 O2           0.6310    -1.6430     4.3720 o          1 UCP      -0.556000
      4 N3          -1.1580    -1.7530     5.7450 ns         1 UCP      -0.471500
      5 C4          -2.1930    -1.2370     6.5100 c          1 UCP       0.576200
      6 O4          -2.9440    -1.9780     7.1170 o          1 UCP      -0.631000
      7 C5          -2.2570     0.2030     6.4820 cc         1 UCP      -0.440200
      8 C6          -1.3520     0.8900     5.7660 cd         1 UCP      -0.075400
      9 C1           0.5700     1.1460     4.2800 c5         1 UCP       0.351700
     10 C7           2.0630     0.9430     4.5530 c5         1 UCP      -0.153400
     11 C3           2.6250     0.3640     3.2550 c5         1 UCP       0.121300
     12 O3           3.8730     0.8850     2.8710 oh         1 UCP      -0.704000
     13 C8           1.5810     0.7820     2.2200 c5         1 UCP       0.165300
     14 O6           0.3540     0.9260     2.9180 os         1 UCP      -0.393000
     15 C9           1.4140    -0.2150     1.0980 c3         1 UCP       0.239600
     16 O5           0.5430     0.3190     0.1310 os         1 UCP      -0.562400
     17 PA          -0.0500    -0.7130    -1.0210 p5         1 UCP       1.450800
     18 O1A         -1.0870    -1.5870    -0.3790 o          1 UCP      -0.864000
     19 O2A          1.1020    -1.3440    -1.7450 o          1 UCP      -0.864000
     20 O3A         -0.7330     0.4800    -1.8840 os         1 UCP      -0.712800
     21 PB          -1.3170     0.2870    -3.4640 p5         1 UCP       1.499400
     22 O1B         -2.4220     1.3080    -3.5460 o          1 UCP      -0.862500
     23 O2B         -1.6630    -1.1690    -3.6240 o          1 UCP      -0.862500
     24 CC           0.1230     0.7740    -4.4390 c3         1 UCP      -0.700400
     25 PG           0.0270     0.4160    -6.2780 p5         1 UCP       1.309500
     26 O1G         -1.3500     0.9200    -6.7210 o          1 UCP      -0.902167
     27 O2G          1.1930     1.2320    -6.8620 o          1 UCP      -0.902167
     28 O3G          0.2180    -1.0960    -6.4340 o          1 UCP      -0.902167
     29 HN3         -1.0690    -2.7620     5.7180 hn         1 UCP       0.318500
     30 H5          -3.0320     0.7180     7.0280 ha         1 UCP       0.182000
     31 H6          -1.3820     1.9700     5.7220 h4         1 UCP       0.177000
     32 H1           0.2810     2.1640     4.5480 h2         1 UCP       0.034700
     33 H2'1         2.2590     0.3260     5.4290 hc         1 UCP       0.036700
     34 H2'2         2.5150     1.9190     4.7350 hc         1 UCP       0.036700
     35 H3           2.6700    -0.7270     3.3230 h1         1 UCP       0.070700
     36 HO'3         4.5540     0.4530     3.3940 ho         1 UCP       0.472000
     37 H4           1.8850     1.7550     1.8050 h1         1 UCP       0.064700
     38 H5'1         2.4030    -0.4210     0.6700 h1         1 UCP       0.020200
     39 H5'2         1.0380    -1.1550     1.5200 h1         1 UCP       0.020200
     40 HCC1         0.2760     1.8470    -4.2840 hc         1 UCP       0.045700
     41 HCC2         1.0000     0.2670    -4.0250 hc         1 UCP       0.045700
@<TRIPOS>BOND
     1     1     2 1   
     2     1     8 1   
     3     1     9 1   
     4     2     3 2   
     5     2     4 1   
     6     4     5 1   
     7     4    29 1   
     8     5     6 2   
     9     5     7 1   
    10     7     8 2   
    11     7    30 1   
    12     8    31 1   
    13     9    10 1   
    14     9    14 1   
    15     9    32 1   
    16    10    11 1   
    17    10    33 1   
    18    10    34 1   
    19    11    12 1   
    20    11    13 1   
    21    11    35 1   
    22    12    36 1   
    23    13    14 1   
    24    13    15 1   
    25    13    37 1   
    26    15    16 1   
    27    15    38 1   
    28    15    39 1   
    29    16    17 1   
    30    17    18 1   
    31    17    19 1   
    32    17    20 1   
    33    20    21 1   
    34    21    22 1   
    35    21    23 1   
    36    21    24 1   
    37    24    25 1   
    38    24    40 1   
    39    24    41 1   
    40    25    26 1   
    41    25    27 1   
    42    25    28 1   
@<TRIPOS>SUBSTRUCTURE
     1 UCP         1 TEMP              0 ****  ****    0 ROOT
