@<TRIPOS>MOLECULE
UCP
   41    42     1     0     0
SMALL
No Charge or Current Charge


@<TRIPOS>ATOM
      1 N1          -0.4860     0.0010     4.8850 n          1 UCP      -0.299000
      2 C2          -0.3690    -1.4080     5.0020 c          1 UCP       0.623000
      3 O2           0.3640    -2.1040     4.3180 o          1 UCP      -0.556000
      4 N3          -1.1220    -1.9900     5.9790 ns         1 UCP      -0.471500
      5 C4          -1.9590    -1.3930     6.8610 c          1 UCP       0.576200
      6 O4          -2.5810    -2.0230     7.6960 o          1 UCP      -0.631000
      7 C5          -2.0300     0.0580     6.7090 cc         1 UCP      -0.440200
      8 C6          -1.3100     0.7250     5.7450 cd         1 UCP      -0.075400
      9 C1           0.2340     0.7400     3.8120 c5         1 UCP       0.351700
     10 C7           1.7130     0.9480     4.2710 c5         1 UCP      -0.153400
     11 C3           2.5080     0.1930     3.1690 c5         1 UCP       0.121300
     12 O3           3.8020     0.7690     2.9650 oh         1 UCP      -0.704000
     13 C8           1.5470     0.3650     1.9550 c5         1 UCP       0.165300
     14 O6           0.2770     0.0430     2.5550 os         1 UCP      -0.393000
     15 C9           1.8540    -0.5740     0.7490 c3         1 UCP       0.239600
     16 O5           1.5270     0.0500    -0.5060 os         1 UCP      -0.562400
     17 PA           0.0150     0.4570    -0.8950 p5         1 UCP       1.450800
     18 O1A         -0.3360     1.7740    -0.2860 o          1 UCP      -0.864000
     19 O2A         -0.9210    -0.6460    -0.5260 o          1 UCP      -0.864000
     20 O3A          0.2810     0.5620    -2.4450 os         1 UCP      -0.712800
     21 PB          -1.0340     0.4670    -3.3150 p5         1 UCP       1.499400
     22 O1B         -2.1270     1.3630    -2.8230 o          1 UCP      -0.862500
     23 O2B         -1.5080    -0.9250    -3.5840 o          1 UCP      -0.862500
     24 CC          -0.4300     1.3010    -4.7730 c3         1 UCP      -0.700400
     25 PG           0.4520     0.1080    -5.7380 p5         1 UCP       1.309500
     26 O1G         -0.5320    -0.6870    -6.5230 o          1 UCP      -0.902167
     27 O2G          1.2540     0.9250    -6.6930 o          1 UCP      -0.902167
     28 O3G          1.3560    -0.7560    -4.9330 o          1 UCP      -0.902167
     29 HN3         -1.0380    -2.9890     6.0580 hn         1 UCP       0.318500
     30 H5          -2.6870     0.5750     7.3990 ha         1 UCP       0.182000
     31 H6          -1.3250     1.8010     5.5820 h4         1 UCP       0.177000
     32 H1          -0.2680     1.7060     3.6810 h2         1 UCP       0.034700
     33 H2'1         1.9230     0.5560     5.2730 hc         1 UCP       0.036700
     34 H2'2         1.9520     2.0170     4.2870 hc         1 UCP       0.036700
     35 H3           2.5970    -0.8740     3.4220 h1         1 UCP       0.070700
     36 HO'3         4.2870     0.7010     3.8190 ho         1 UCP       0.472000
     37 H4           1.5400     1.4110     1.6180 h1         1 UCP       0.064700
     38 H5'1         2.9260    -0.8110     0.7580 h1         1 UCP       0.020200
     39 H5'2         1.3140    -1.5220     0.8720 h1         1 UCP       0.020200
     40 HCC1        -1.2700     1.6930    -5.3490 hc         1 UCP       0.045700
     41 HCC2         0.2280     2.1220    -4.4830 hc         1 UCP       0.045700
@<TRIPOS>BOND
     1     1     2 1   
     2     1     8 1   
     3     1     9 1   
     4     2     3 2   
     5     2     4 1   
     6     4     5 1   
     7     4    29 1   
     8     5     6 2   
     9     5     7 1   
    10     7     8 2   
    11     7    30 1   
    12     8    31 1   
    13     9    10 1   
    14     9    14 1   
    15     9    32 1   
    16    10    11 1   
    17    10    33 1   
    18    10    34 1   
    19    11    12 1   
    20    11    13 1   
    21    11    35 1   
    22    12    36 1   
    23    13    14 1   
    24    13    15 1   
    25    13    37 1   
    26    15    16 1   
    27    15    38 1   
    28    15    39 1   
    29    16    17 1   
    30    17    18 1   
    31    17    19 1   
    32    17    20 1   
    33    20    21 1   
    34    21    22 1   
    35    21    23 1   
    36    21    24 1   
    37    24    25 1   
    38    24    40 1   
    39    24    41 1   
    40    25    26 1   
    41    25    27 1   
    42    25    28 1   
@<TRIPOS>SUBSTRUCTURE
     1 UCP         1 TEMP              0 ****  ****    0 ROOT
