@<TRIPOS>MOLECULE
UCR
  194   203     1     0     0
SMALL
abcg2


@<TRIPOS>ATOM
      1 N1         172.7190   178.4060   167.5900 ns         1 UCR      -0.491900
      2 N3         170.7150   176.6960   171.3310 nb         1 UCR      -0.640000
      3 C4         173.8820   180.2050   168.6650 c          1 UCR       0.587100
      4 C5         168.3830   180.4470   170.9660 c          1 UCR       0.593100
      5 C6         168.2970   182.4750   173.0780 c6         1 UCR       0.086000
      6 C7         167.6480   181.7950   174.2750 c6         1 UCR      -0.124400
      7 C8         167.3300   180.3190   174.0270 c6         1 UCR       0.187300
      8 C10        168.1720   181.5080   168.7960 c3         1 UCR       0.109000
      9 N12        169.5040   181.7480   172.6960 n          1 UCR      -0.398800
     10 C13        168.6500   182.8270   168.2300 ca         1 UCR      -0.094300
     11 C15        170.2590   184.1290   166.9940 ca         1 UCR      -0.119000
     12 C17        168.4010   185.2200   168.0550 ca         1 UCR      -0.119000
     13 C20        170.4150   177.6650   167.3690 c3         1 UCR       0.037700
     14 C21        171.5370   178.6550   167.0080 c          1 UCR       0.602100
     15 C26        170.8490   176.5180   172.6280 ca         1 UCR       0.283900
     16 C28        170.9130   175.2470   173.1980 ca         1 UCR      -0.099000
     17 C1         173.8740   179.2670   167.4570 c3         1 UCR       0.046700
     18 O1         173.9300   179.7240   169.7900 o          1 UCR      -0.616100
     19 C2         171.8480   179.0470   175.1350 ca         1 UCR      -0.103500
     20 N2         170.5640   177.1790   168.7140 ns         1 UCR      -0.475900
     21 C3         169.2130   180.3890   172.2630 c6         1 UCR       0.043700
     22 O3         167.3090   179.8640   170.8450 o          1 UCR      -0.632100
     23 N4         174.4880   175.5820   167.0150 na         1 UCR       0.125800
     24 O4         166.1350   180.1670   173.2900 oh         1 UCR      -0.685000
     25 N5         173.4720   174.4970   168.5150 nc         1 UCR      -0.360000
     26 N6         173.3040   175.3130   167.5330 nd         1 UCR      -0.209800
     27 O6         168.9640   179.4020   168.0340 os         1 UCR      -0.436100
     28 N7         179.7460   176.2340   176.8170 nc         1 UCR      -0.671000
     29 O7         171.3440   179.5630   166.2170 o          1 UCR      -0.609100
     30 N8         179.1610   174.4380   174.5340 n          1 UCR      -0.388800
     31 O8         170.2230   174.9700   168.2950 o          1 UCR      -0.632100
     32 C9         168.5290   179.6110   173.3900 c6         1 UCR      -0.124400
     33 N9         175.9360   177.9850   171.6150 ns         1 UCR      -0.492900
     34 O9         170.5830   173.2560   170.2160 oh         1 UCR      -0.534100
     35 N10        173.8320   181.5270   168.4650 n          1 UCR      -0.392800
     36 C11        168.1930   180.4250   167.7240 c          1 UCR       0.592100
     37 N11        172.9440   182.1320   171.9040 n          1 UCR      -0.384800
     38 O11        176.6740   172.9200   172.4430 os         1 UCR      -0.461100
     39 C12        170.7190   182.3020   172.9190 c          1 UCR       0.602100
     40 N13        168.9030   181.1980   169.9960 ns         1 UCR      -0.473900
     41 C14        169.8110   182.9030   167.4660 ca         1 UCR      -0.080000
     42 O15        180.4860   175.5940   178.7770 os         1 UCR      -0.252000
     43 C16        169.5570   185.2900   167.2890 ca         1 UCR      -0.101000
     44 C18        167.9520   183.9930   168.5230 ca         1 UCR      -0.080000
     45 C19        169.0460   178.2920   167.1220 c3         1 UCR       0.170300
     46 C23        167.8970   177.3360   167.3660 c3         1 UCR      -0.116100
     47 C25        170.6260   175.6370   170.5300 ca         1 UCR       0.172500
     48 C27        173.8110   182.4220   169.6110 c5         1 UCR       0.034700
     49 C29        170.8300   174.1390   172.3840 ca         1 UCR      -0.147000
     50 C30        170.6740   174.3200   171.0060 ca         1 UCR       0.183100
     51 C31        175.4570   174.9280   167.6800 cd         1 UCR      -0.219000
     52 C32        172.6140   181.2530   174.1950 c3         1 UCR      -0.037100
     53 C33        174.7880   174.2220   168.6490 cc         1 UCR       0.205300
     54 C34        174.9110   171.2960   172.1680 c3         1 UCR      -0.064700
     55 C35        174.6310   176.0100   172.0830 ce         1 UCR      -0.262200
     56 C36        175.3160   175.1130   171.3800 c2         1 UCR      -0.181200
     57 C37        175.1360   177.3490   172.4880 c          1 UCR       0.608300
     58 C38        172.7190   181.9970   170.5870 c          1 UCR       0.623100
     59 C39        180.2560   178.0180   178.4590 c3         1 UCR      -0.123700
     60 C40        174.8360   173.7140   171.0930 c3         1 UCR      -0.035500
     61 C41        175.2560   172.7910   172.2490 c3         1 UCR       0.184300
     62 C42        180.4400   178.9680   177.2910 c3         1 UCR       0.196300
     63 C43        171.7440   180.4360   175.1110 ca         1 UCR      -0.095300
     64 C44        177.1550   173.5150   173.5250 c          1 UCR       0.579100
     65 C45        178.6780   173.5750   173.4760 c5         1 UCR       0.052700
     66 C46        177.9060   180.1500   173.6660 ce         1 UCR      -0.161000
     67 C47        179.2210   174.2440   172.2140 c5         1 UCR      -0.082400
     68 C48        179.1040   175.7230   172.5500 c5         1 UCR      -0.106400
     69 C49        179.4230   175.7960   174.0430 c5         1 UCR       0.116000
     70 C50        173.5320   183.7920   168.9820 c5         1 UCR      -0.088400
     71 C51        180.2730   180.4270   177.6420 c3         1 UCR      -0.141400
     72 C52        179.3540   173.9420   175.7700 c          1 UCR       0.562600
     73 C53        173.4410   171.1050   171.8060 c3         1 UCR      -0.087100
     74 C54        170.8380   181.0510   175.9710 ca         1 UCR      -0.103500
     75 C55        176.4190   179.3330   171.8340 c3         1 UCR       0.144200
     76 C56        177.7180   179.4020   172.5760 c2         1 UCR      -0.233200
     77 C57        175.8170   170.4300   171.2950 c3         1 UCR      -0.087100
     78 C58        179.1760   180.3330   174.3720 ce         1 UCR      -0.066200
     79 C59        179.1790   181.0720   175.4930 c2         1 UCR      -0.209200
     80 C60        180.3300   181.3500   176.4120 c3         1 UCR       0.214500
     81 C61        179.7840   174.8580   176.8480 cc         1 UCR       0.183500
     82 C62        174.1530   183.6690   167.5960 c5         1 UCR      -0.094400
     83 C63        180.3880   179.6680   173.7900 c3         1 UCR      -0.061900
     84 C64        180.2370   174.4750   178.0650 cd         1 UCR       0.173900
     85 C65        170.0370   180.2960   176.8180 ca         1 UCR      -0.117000
     86 C66        175.2970   173.2900   169.6940 c3         1 UCR      -0.081700
     87 C67        180.1630   176.6170   177.9690 cd         1 UCR       0.443300
     88 C68        173.8240   182.2400   167.1890 c5         1 UCR       0.105000
     89 C69        171.9980   181.4650   172.8000 c3         1 UCR       0.046700
     90 C70        170.1360   178.9120   176.8220 ca         1 UCR      -0.106000
     91 C71        171.0490   178.2890   175.9800 ca         1 UCR      -0.117000
     92 C72        175.1880   178.4820   167.4580 c3         1 UCR      -0.083400
     93 C73        175.5000   177.6900   166.1940 c3         1 UCR      -0.090400
     94 C74        174.6040   176.4960   165.8930 c3         1 UCR       0.076600
     95 F1         181.7270   178.7610   176.7720 f          1 UCR      -0.272000
     96 H2         172.7760   177.6500   168.2560 hn         1 UCR       0.346500
     97 H8         168.5570   183.5030   173.3110 h1         1 UCR       0.065200
     98 H7         167.6120   182.5160   172.2260 h1         1 UCR       0.065200
     99 H9         168.3230   181.8760   175.1290 hc         1 UCR       0.056200
    100 H10        166.7310   182.3240   174.5460 hc         1 UCR       0.056200
    101 H11        167.1630   179.8490   175.0020 h1         1 UCR       0.054700
    102 H16        167.1150   181.6170   169.0600 h1         1 UCR       0.098700
    103 H20        171.1580   184.1780   166.3930 ha         1 UCR       0.110500
    104 H22        167.8470   186.1200   168.2870 ha         1 UCR       0.110500
    105 H25        170.5080   176.8130   166.6890 h1         1 UCR       0.109700
    106 H32        170.9090   177.4070   173.2430 h4         1 UCR       0.029100
    107 H34        171.0260   175.1380   174.2690 ha         1 UCR       0.129000
    108 H1         173.7800   179.8080   166.5160 h1         1 UCR       0.087700
    109 H3         172.5710   178.5560   174.4950 ha         1 UCR       0.129500
    110 H4         170.6620   177.8430   169.4730 hn         1 UCR       0.359500
    111 H5         170.1350   179.8680   172.0060 h1         1 UCR       0.086700
    112 H6         166.3710   179.9820   172.3670 ho         1 UCR       0.481000
    113 H12        168.2490   178.6140   173.0440 hc         1 UCR       0.067700
    114 H13        169.2850   179.4620   174.1620 hc         1 UCR       0.067700
    115 H14        176.0380   177.6010   170.6910 hn         1 UCR       0.310500
    116 H15        170.4420   173.5850   169.2980 ho         1 UCR       0.528000
    117 H17        169.8650   181.5210   170.0840 hn         1 UCR       0.370500
    118 H18        170.3720   182.0070   167.2260 ha         1 UCR       0.125000
    119 H21        169.9080   186.2450   166.9200 ha         1 UCR       0.110000
    120 H23        167.0470   183.9420   169.1170 ha         1 UCR       0.125000
    121 H24        169.0140   178.6540   166.0950 h1         1 UCR       0.087700
    122 H30        166.9460   177.8110   167.1260 hc         1 UCR       0.056033
    123 H29        167.9980   176.4610   166.7250 hc         1 UCR       0.056033
    124 H31        167.8590   177.0020   168.4020 hc         1 UCR       0.056033
    125 H33        174.7920   182.4080   170.0910 h1         1 UCR       0.067700
    126 H35        170.8740   173.1380   172.7930 ha         1 UCR       0.136000
    127 H36        176.5020   175.0020   167.4280 h4         1 UCR       0.165000
    128 H38        173.5700   180.7420   174.0600 hc         1 UCR       0.067700
    129 H37        172.8240   182.2120   174.6670 hc         1 UCR       0.067700
    130 H39        175.0380   170.9340   173.1950 hc         1 UCR       0.054700
    131 H40        173.6600   175.7510   172.4940 ha         1 UCR       0.202000
    132 H41        176.3090   175.3550   171.0080 ha         1 UCR       0.165000
    133 H43        179.3310   178.2720   178.9850 hc         1 UCR       0.079700
    134 H42        181.0680   178.1280   179.1820 hc         1 UCR       0.079700
    135 H44        173.7420   173.7190   171.1080 hc         1 UCR       0.083700
    136 H45        174.7420   173.1750   173.1330 h1         1 UCR       0.071700
    137 H46        179.7350   178.7020   176.5010 h1         1 UCR       0.088700
    138 H47        179.0570   172.5570   173.5910 h1         1 UCR       0.106700
    139 H48        177.0540   180.6890   174.0760 ha         1 UCR       0.175000
    140 H49        180.2670   173.9580   172.0920 hc         1 UCR       0.062700
    141 H50        178.6930   173.9560   171.3070 hc         1 UCR       0.062700
    142 H51        179.7740   176.3500   171.9650 hc         1 UCR       0.054200
    143 H52        178.0880   176.0790   172.3660 hc         1 UCR       0.054200
    144 H54        180.4670   176.0640   174.2140 h1         1 UCR       0.066700
    145 H53        178.8050   176.5340   174.5480 h1         1 UCR       0.066700
    146 H56        173.9490   184.6070   169.5710 hc         1 UCR       0.071200
    147 H55        172.4550   183.9530   168.8980 hc         1 UCR       0.071200
    148 H57        179.3050   180.5540   178.1350 hc         1 UCR       0.059700
    149 H58        181.0420   180.7250   178.3650 hc         1 UCR       0.059700
    150 H61        172.7870   171.6990   172.4470 hc         1 UCR       0.038367
    151 H60        173.2370   171.3850   170.7710 hc         1 UCR       0.038367
    152 H59        173.1550   170.0600   171.9240 hc         1 UCR       0.038367
    153 H62        170.7590   182.1320   175.9830 ha         1 UCR       0.129500
    154 H63        176.5470   179.7820   170.8480 h1         1 UCR       0.054200
    155 H64        175.6550   179.9190   172.3490 h1         1 UCR       0.054200
    156 H65        178.5400   178.8420   172.1400 ha         1 UCR       0.167000
    157 H67        176.8720   170.5690   171.5260 hc         1 UCR       0.038367
    158 H66        175.5840   169.3790   171.4750 hc         1 UCR       0.038367
    159 H68        175.6810   170.6050   170.2290 hc         1 UCR       0.038367
    160 H69        178.2320   181.4890   175.8270 ha         1 UCR       0.184000
    161 H70        181.2830   181.1840   175.8970 h1         1 UCR       0.048700
    162 H72        175.2350   183.8060   167.6510 hc         1 UCR       0.058200
    163 H71        173.7570   184.3980   166.8910 hc         1 UCR       0.058200
    164 H74        181.3080   179.9290   174.3060 hc         1 UCR       0.044700
    165 H73        180.2900   178.5810   173.8270 hc         1 UCR       0.044700
    166 H75        180.5100   179.9380   172.7390 hc         1 UCR       0.044700
    167 H76        180.4300   173.5250   178.5360 h4         1 UCR       0.083100
    168 H77        169.3370   180.7920   177.4790 ha         1 UCR       0.114000
    169 H78        174.9280   172.2890   169.4730 hc         1 UCR       0.061200
    170 H79        176.3870   173.2450   169.6450 hc         1 UCR       0.061200
    171 H81        172.8400   182.1790   166.7170 h1         1 UCR       0.058700
    172 H80        174.5600   181.8310   166.5000 h1         1 UCR       0.058700
    173 H82        171.8200   180.4750   172.3830 h1         1 UCR       0.086700
    174 H83        169.5120   178.3220   177.4820 ha         1 UCR       0.114000
    175 H84        171.1450   177.2100   175.9850 ha         1 UCR       0.114000
    176 H86        175.2250   177.8370   168.3390 hc         1 UCR       0.057200
    177 H85        175.9970   179.2060   167.5920 hc         1 UCR       0.057200
    178 H88        176.5340   177.3450   166.2630 hc         1 UCR       0.054200
    179 H87        175.4630   178.3470   165.3220 hc         1 UCR       0.054200
    180 H90        173.5910   176.8000   165.6430 h1         1 UCR       0.079200
    181 H89        175.0020   175.9480   165.0380 h1         1 UCR       0.079200
    182 C22        174.0210   182.9480   172.4410 c3         1 UCR       0.091300
    183 C24        170.4520   175.8940   169.0760 c          1 UCR       0.532600
    184 O2         170.8450   183.4710   173.2560 o          1 UCR      -0.611100
    185 O5         167.5520   180.5270   166.7100 o          1 UCR      -0.482000
    186 O16        171.6660   181.5450   170.1530 o          1 UCR      -0.633100
    187 O12        176.4940   173.9410   174.4350 o          1 UCR      -0.457000
    188 O10        174.8180   177.8260   173.5710 o          1 UCR      -0.607100
    189 O13        179.1920   172.7560   176.0360 o          1 UCR      -0.610100
    190 O14        180.2200   182.7050   176.8010 oh         1 UCR      -0.654000
    191 H27        173.6500   183.5490   173.2660 h1         1 UCR       0.046700
    192 H26        174.8650   182.3510   172.7890 h1         1 UCR       0.046700
    193 H28        174.3800   183.6510   171.6970 h1         1 UCR       0.046700
    194 H19        180.9440   182.9040   177.4040 ho         1 UCR       0.444000
@<TRIPOS>BOND
     1     1    14 1   
     2     1    17 1   
     3     1    96 1   
     4     2    15 ar  
     5     2    47 ar  
     6     3    17 1   
     7     3    18 2   
     8     3    35 1   
     9     4    21 1   
    10     4    22 2   
    11     4    40 1   
    12     5     6 1   
    13     5     9 1   
    14     5    97 1   
    15     5    98 1   
    16     6     7 1   
    17     6    99 1   
    18     6   100 1   
    19     7    24 1   
    20     7    32 1   
    21     7   101 1   
    22     8    10 1   
    23     8    36 1   
    24     8    40 1   
    25     8   102 1   
    26     9    21 1   
    27     9    39 1   
    28    10    41 ar  
    29    10    44 ar  
    30    11    41 ar  
    31    11    43 ar  
    32    11   103 1   
    33    12    43 ar  
    34    12    44 ar  
    35    12   104 1   
    36    13    14 1   
    37    13    20 1   
    38    13    45 1   
    39    13   105 1   
    40    14    29 2   
    41    15    16 ar  
    42    15   106 1   
    43    16    49 ar  
    44    16   107 1   
    45    17    92 1   
    46    17   108 1   
    47    19    63 ar  
    48    19    91 ar  
    49    19   109 1   
    50    20   110 1   
    51    20   183 1   
    52    21    32 1   
    53    21   111 1   
    54    23    26 1   
    55    23    51 1   
    56    23    94 1   
    57    24   112 1   
    58    25    26 2   
    59    25    53 1   
    60    27    36 1   
    61    27    45 1   
    62    28    81 1   
    63    28    87 2   
    64    30    65 1   
    65    30    69 1   
    66    30    72 1   
    67    31   183 2   
    68    32   113 1   
    69    32   114 1   
    70    33    57 1   
    71    33    75 1   
    72    33   115 1   
    73    34    50 1   
    74    34   116 1   
    75    35    48 1   
    76    35    88 1   
    77    36   185 2   
    78    37    58 1   
    79    37    89 1   
    80    37   182 1   
    81    38    61 1   
    82    38    64 1   
    83    39    89 1   
    84    39   184 2   
    85    40   117 1   
    86    41   118 1   
    87    42    84 1   
    88    42    87 1   
    89    43   119 1   
    90    44   120 1   
    91    45    46 1   
    92    45   121 1   
    93    46   122 1   
    94    46   123 1   
    95    46   124 1   
    96    47    50 ar  
    97    47   183 1   
    98    48    58 1   
    99    48    70 1   
   100    48   125 1   
   101    49    50 ar  
   102    49   126 1   
   103    51    53 2   
   104    51   127 1   
   105    52    63 1   
   106    52    89 1   
   107    52   128 1   
   108    52   129 1   
   109    53    86 1   
   110    54    61 1   
   111    54    73 1   
   112    54    77 1   
   113    54   130 1   
   114    55    56 2   
   115    55    57 1   
   116    55   131 1   
   117    56    60 1   
   118    56   132 1   
   119    57   188 2   
   120    58   186 2   
   121    59    62 1   
   122    59    87 1   
   123    59   133 1   
   124    59   134 1   
   125    60    61 1   
   126    60    86 1   
   127    60   135 1   
   128    61   136 1   
   129    62    71 1   
   130    62    95 1   
   131    62   137 1   
   132    63    74 ar  
   133    64    65 1   
   134    64   187 2   
   135    65    67 1   
   136    65   138 1   
   137    66    76 2   
   138    66    78 1   
   139    66   139 1   
   140    67    68 1   
   141    67   140 1   
   142    67   141 1   
   143    68    69 1   
   144    68   142 1   
   145    68   143 1   
   146    69   144 1   
   147    69   145 1   
   148    70    82 1   
   149    70   146 1   
   150    70   147 1   
   151    71    80 1   
   152    71   148 1   
   153    71   149 1   
   154    72    81 1   
   155    72   189 2   
   156    73   150 1   
   157    73   151 1   
   158    73   152 1   
   159    74    85 ar  
   160    74   153 1   
   161    75    76 1   
   162    75   154 1   
   163    75   155 1   
   164    76   156 1   
   165    77   157 1   
   166    77   158 1   
   167    77   159 1   
   168    78    79 2   
   169    78    83 1   
   170    79    80 1   
   171    79   160 1   
   172    80   161 1   
   173    80   190 1   
   174    81    84 2   
   175    82    88 1   
   176    82   162 1   
   177    82   163 1   
   178    83   164 1   
   179    83   165 1   
   180    83   166 1   
   181    84   167 1   
   182    85    90 ar  
   183    85   168 1   
   184    86   169 1   
   185    86   170 1   
   186    88   171 1   
   187    88   172 1   
   188    89   173 1   
   189    90    91 ar  
   190    90   174 1   
   191    91   175 1   
   192    92    93 1   
   193    92   176 1   
   194    92   177 1   
   195    93    94 1   
   196    93   178 1   
   197    93   179 1   
   198    94   180 1   
   199    94   181 1   
   200   182   191 1   
   201   182   192 1   
   202   182   193 1   
   203   190   194 1   
@<TRIPOS>SUBSTRUCTURE
     1 UCR         1 TEMP              0 ****  ****    0 ROOT
