@<TRIPOS>MOLECULE
UCR
  194   203     1     0     0
SMALL
No Charge or Current Charge


@<TRIPOS>ATOM
      1 N1         172.6210   178.2650   167.9410 ns         1 UCR      -0.491900
      2 N3         170.7290   176.4690   171.6310 nb         1 UCR      -0.640000
      3 C4         173.6180   180.2050   169.1070 c          1 UCR       0.587100
      4 C5         168.8300   181.6050   170.9580 c          1 UCR       0.593100
      5 C6         168.4160   182.3190   174.0420 c6         1 UCR       0.086000
      6 C7         167.5390   181.1230   174.4990 c6         1 UCR      -0.124400
      7 C8         167.2970   180.0790   173.3830 c6         1 UCR       0.187300
      8 C10        168.0540   181.1270   168.5760 c3         1 UCR       0.109000
      9 N12        169.6760   181.8630   173.3990 n          1 UCR      -0.398800
     10 C13        168.8460   182.2470   167.8990 ca         1 UCR      -0.094300
     11 C15        170.9510   183.1560   167.0620 ca         1 UCR      -0.119000
     12 C17        168.9000   184.4360   166.8160 ca         1 UCR      -0.119000
     13 C20        170.4480   177.1410   167.4610 c3         1 UCR       0.037700
     14 C21        171.5960   178.1010   167.0300 c          1 UCR       0.602100
     15 C26        170.8820   176.3480   172.9690 ca         1 UCR       0.283900
     16 C28        170.9430   175.1030   173.6200 ca         1 UCR      -0.099000
     17 C1         173.7070   179.2690   167.8610 c3         1 UCR       0.046700
     18 O1         173.0610   179.8230   170.1300 o          1 UCR      -0.616100
     19 C2         171.5690   179.5070   175.4420 ca         1 UCR      -0.103500
     20 N2         170.5760   176.7400   168.8890 ns         1 UCR      -0.475900
     21 C3         169.4320   180.9340   172.2440 c6         1 UCR       0.043700
     22 O3         168.6540   182.8140   170.8530 o          1 UCR      -0.632100
     23 N4         174.5460   175.7400   166.7390 na         1 UCR       0.125800
     24 O4         166.3890   180.5910   172.4050 oh         1 UCR      -0.685000
     25 N5         173.4780   174.1730   167.7670 nc         1 UCR      -0.360000
     26 N6         173.3370   175.1070   166.8630 nd         1 UCR      -0.209800
     27 O6         168.9260   178.9380   167.9700 os         1 UCR      -0.436100
     28 N7         179.9890   176.4960   176.3660 nc         1 UCR      -0.671000
     29 O7         171.5810   178.7170   165.9720 o          1 UCR      -0.609100
     30 N8         179.1780   174.6360   174.0300 n          1 UCR      -0.388800
     31 O8         170.2420   174.4970   168.6430 o          1 UCR      -0.632100
     32 C9         168.6370   179.6820   172.7190 c6         1 UCR      -0.124400
     33 N9         175.5100   177.8720   171.6580 ns         1 UCR      -0.492900
     34 O9         170.5710   172.8920   170.7160 oh         1 UCR      -0.534100
     35 N10        174.2460   181.4770   169.0560 n          1 UCR      -0.392800
     36 C11        167.9880   179.8920   167.6370 c          1 UCR       0.592100
     37 N11        173.2360   182.5440   172.4580 n          1 UCR      -0.384800
     38 O11        176.6080   172.8180   172.0290 os         1 UCR      -0.461100
     39 C12        170.8330   182.6770   173.4160 c          1 UCR       0.602100
     40 N13        168.5890   180.7460   169.9030 ns         1 UCR      -0.473900
     41 C14        170.2370   182.1260   167.6980 ca         1 UCR      -0.080000
     42 O15        180.4740   175.7880   178.4710 os         1 UCR      -0.252000
     43 C16        170.2850   184.3110   166.6200 ca         1 UCR      -0.101000
     44 C18        168.1830   183.4090   167.4520 ca         1 UCR      -0.080000
     45 C19        169.0540   177.7530   167.1570 c3         1 UCR       0.170300
     46 C23        167.8820   176.7990   167.4930 c3         1 UCR      -0.116100
     47 C25        170.6280   175.3260   170.8830 ca         1 UCR       0.172500
     48 C27        174.3050   182.4080   170.2280 c5         1 UCR       0.034700
     49 C29        170.8400   173.9230   172.8600 ca         1 UCR      -0.147000
     50 C30        170.6760   174.0310   171.4710 ca         1 UCR       0.183100
     51 C31        175.4750   175.1650   167.5780 cd         1 UCR      -0.219000
     52 C32        172.7080   181.6960   174.8260 c3         1 UCR      -0.037100
     53 C33        174.7640   174.2020   168.2220 cc         1 UCR       0.205300
     54 C34        174.9060   171.0990   171.7350 c3         1 UCR      -0.064700
     55 C35        174.3830   175.7500   172.0540 ce         1 UCR      -0.262200
     56 C36        174.9950   175.0550   171.0620 c2         1 UCR      -0.181200
     57 C37        174.6140   177.1750   172.4350 c          1 UCR       0.608300
     58 C38        172.9810   182.5450   171.0640 c          1 UCR       0.623100
     59 C39        180.3870   178.2460   178.1020 c3         1 UCR      -0.123700
     60 C40        174.7050   173.5970   170.7090 c3         1 UCR      -0.035500
     61 C41        175.1860   172.6370   171.8540 c3         1 UCR       0.184300
     62 C42        180.3480   179.3050   176.9740 c3         1 UCR       0.196300
     63 C43        171.7220   180.8890   175.6630 ca         1 UCR      -0.095300
     64 C44        177.0710   173.5720   173.0810 c          1 UCR       0.579100
     65 C45        178.6160   173.7530   172.9720 c5         1 UCR       0.052700
     66 C46        177.2530   180.2890   173.6010 ce         1 UCR      -0.161000
     67 C47        178.9810   174.5640   171.6940 c5         1 UCR      -0.082400
     68 C48        178.6960   176.0150   172.1520 c5         1 UCR      -0.106400
     69 C49        179.3060   176.0460   173.5780 c5         1 UCR       0.116000
     70 C50        174.6220   183.7540   169.5090 c5         1 UCR      -0.088400
     71 C51        179.9670   180.7210   177.4580 c3         1 UCR      -0.141400
     72 C52        179.4570   174.1480   175.3380 c          1 UCR       0.562600
     73 C53        173.4330   170.7820   171.3830 c3         1 UCR      -0.087100
     74 C54        170.9490   181.5180   176.6600 ca         1 UCR      -0.103500
     75 C55        175.7760   179.3040   171.7770 c3         1 UCR       0.144200
     76 C56        177.0940   179.5640   172.4680 c2         1 UCR      -0.233200
     77 C57        175.8960   170.2750   170.8630 c3         1 UCR      -0.087100
     78 C58        178.5370   180.5970   174.2640 ce         1 UCR      -0.066200
     79 C59        178.5360   181.2900   175.4330 c2         1 UCR      -0.209200
     80 C60        179.7110   181.7140   176.3000 c3         1 UCR       0.214500
     81 C61        179.8750   175.1260   176.4090 cc         1 UCR       0.183500
     82 C62        175.5930   183.2900   168.3970 c5         1 UCR      -0.094400
     83 C63        179.8080   180.1260   173.5610 c3         1 UCR      -0.061900
     84 C64        180.1710   174.7180   177.6810 cd         1 UCR       0.173900
     85 C65        170.0360   180.7730   177.4260 ca         1 UCR      -0.117000
     86 C66        175.2360   173.2530   169.2900 c3         1 UCR      -0.081700
     87 C67        180.3470   176.8290   177.5960 cd         1 UCR       0.443300
     88 C68        174.8630   182.0460   167.8350 c5         1 UCR       0.105000
     89 C69        172.2100   181.9390   173.3720 c3         1 UCR       0.046700
     90 C70        169.8890   179.3940   177.2000 ca         1 UCR      -0.106000
     91 C71        170.6550   178.7620   176.2070 ca         1 UCR      -0.117000
     92 C72        175.1030   178.5850   167.8030 c3         1 UCR      -0.083400
     93 C73        175.5510   178.0560   166.4140 c3         1 UCR      -0.090400
     94 C74        174.7270   176.8830   165.8260 c3         1 UCR       0.076600
     95 F1         181.5630   179.3540   176.3720 f          1 UCR      -0.272000
     96 H2         172.5580   177.7100   168.7860 hn         1 UCR       0.346500
     97 H8         168.6530   182.9420   174.9170 h1         1 UCR       0.065200
     98 H7         167.8490   182.9470   173.3400 h1         1 UCR       0.065200
     99 H9         168.0410   180.6240   175.3380 hc         1 UCR       0.056200
    100 H10        166.5830   181.4890   174.8970 hc         1 UCR       0.056200
    101 H11        166.8640   179.1770   173.8420 h1         1 UCR       0.054700
    102 H16        167.0160   181.4540   168.7210 h1         1 UCR       0.098700
    103 H20        172.0210   183.0610   166.9110 ha         1 UCR       0.110500
    104 H22        168.3820   185.3300   166.4750 ha         1 UCR       0.110500
    105 H25        170.5740   176.2460   166.8380 h1         1 UCR       0.109700
    106 H32        170.9590   177.2750   173.5340 h4         1 UCR       0.029100
    107 H34        171.0680   175.0600   174.6990 ha         1 UCR       0.129000
    108 H1         173.5650   179.8940   166.9710 h1         1 UCR       0.087700
    109 H3         172.1610   179.0120   174.6780 ha         1 UCR       0.129500
    110 H4         170.6560   177.4580   169.6050 hn         1 UCR       0.359500
    111 H5         170.3920   180.5520   171.8790 h1         1 UCR       0.086700
    112 H6         165.5250   180.7150   172.8580 ho         1 UCR       0.481000
    113 H12        168.4640   178.9700   171.9020 hc         1 UCR       0.067700
    114 H13        169.2450   179.1410   173.4580 hc         1 UCR       0.067700
    115 H14        175.9450   177.3650   170.9020 hn         1 UCR       0.310500
    116 H15        170.4310   173.1880   169.7760 ho         1 UCR       0.528000
    117 H17        168.8070   179.7690   170.0540 hn         1 UCR       0.370500
    118 H18        170.7640   181.2380   168.0390 ha         1 UCR       0.125000
    119 H21        170.8410   185.1060   166.1290 ha         1 UCR       0.110000
    120 H23        167.1100   183.5180   167.5970 ha         1 UCR       0.125000
    121 H24        169.0180   178.0030   166.0870 h1         1 UCR       0.087700
    122 H30        166.9280   177.2000   167.1310 hc         1 UCR       0.056033
    123 H29        168.0340   175.8250   167.0140 hc         1 UCR       0.056033
    124 H31        167.7980   176.6400   168.5740 hc         1 UCR       0.056033
    125 H33        175.1270   182.1040   170.8890 h1         1 UCR       0.067700
    126 H35        170.8830   172.9470   173.3380 ha         1 UCR       0.136000
    127 H36        176.5070   175.4800   167.6620 h4         1 UCR       0.165000
    128 H38        173.6670   181.1650   174.7900 hc         1 UCR       0.067700
    129 H37        172.9040   182.6570   175.3170 hc         1 UCR       0.067700
    130 H39        175.0480   170.7160   172.7540 hc         1 UCR       0.054700
    131 H40        173.6360   175.2600   172.6720 ha         1 UCR       0.202000
    132 H41        175.7650   175.5190   170.4450 ha         1 UCR       0.165000
    133 H43        179.5250   178.3950   178.7610 hc         1 UCR       0.079700
    134 H42        181.2800   178.4000   178.7180 hc         1 UCR       0.079700
    135 H44        173.6140   173.4950   170.6590 hc         1 UCR       0.083700
    136 H45        174.6360   172.9480   172.7520 h1         1 UCR       0.071700
    137 H46        179.6050   178.9930   176.2290 h1         1 UCR       0.088700
    138 H47        179.0720   172.7550   172.9600 h1         1 UCR       0.106700
    139 H48        176.3640   180.7010   174.0830 ha         1 UCR       0.175000
    140 H49        180.0400   174.4350   171.4390 hc         1 UCR       0.062700
    141 H50        178.4020   174.2750   170.8090 hc         1 UCR       0.062700
    142 H51        179.1410   176.7670   171.4900 hc         1 UCR       0.054200
    143 H52        177.6200   176.2100   172.1890 hc         1 UCR       0.054200
    144 H54        180.3600   176.3540   173.5590 h1         1 UCR       0.066700
    145 H53        178.7420   176.7460   174.2090 h1         1 UCR       0.066700
    146 H56        175.0730   184.5030   170.1680 hc         1 UCR       0.071200
    147 H55        173.7180   184.2020   169.0780 hc         1 UCR       0.071200
    148 H57        179.0600   180.6590   178.0710 hc         1 UCR       0.059700
    149 H58        180.7650   181.1040   178.1060 hc         1 UCR       0.059700
    150 H61        172.7510   171.3150   172.0560 hc         1 UCR       0.038367
    151 H60        173.1990   171.0730   170.3520 hc         1 UCR       0.038367
    152 H59        173.2350   169.7090   171.4840 hc         1 UCR       0.038367
    153 H62        171.0510   182.5870   176.8400 ha         1 UCR       0.129500
    154 H63        175.8150   179.7300   170.7670 h1         1 UCR       0.054200
    155 H64        174.9530   179.7950   172.3140 h1         1 UCR       0.054200
    156 H65        177.9450   179.1280   171.9460 ha         1 UCR       0.167000
    157 H67        176.9360   170.4550   171.1580 hc         1 UCR       0.038367
    158 H66        175.7050   169.2030   170.9940 hc         1 UCR       0.038367
    159 H68        175.8000   170.4900   169.7960 hc         1 UCR       0.038367
    160 H69        177.5830   181.5960   175.8640 ha         1 UCR       0.184000
    161 H70        180.6220   181.7930   175.6930 h1         1 UCR       0.048700
    162 H72        176.5700   183.0190   168.8140 hc         1 UCR       0.058200
    163 H71        175.7630   184.0560   167.6320 hc         1 UCR       0.058200
    164 H74        180.7260   180.5050   174.0180 hc         1 UCR       0.044700
    165 H73        179.8760   179.0320   173.5680 hc         1 UCR       0.044700
    166 H75        179.8260   180.4550   172.5160 hc         1 UCR       0.044700
    167 H76        180.1840   173.7340   178.1300 h4         1 UCR       0.083100
    168 H77        169.4420   181.2640   178.1930 ha         1 UCR       0.114000
    169 H78        174.8930   172.2550   169.0060 hc         1 UCR       0.061200
    170 H79        176.3320   173.2230   169.3020 hc         1 UCR       0.061200
    171 H81        174.0960   182.3270   167.1040 h1         1 UCR       0.058700
    172 H80        175.5670   181.3620   167.3460 h1         1 UCR       0.058700
    173 H82        172.0250   180.9380   172.9730 h1         1 UCR       0.086700
    174 H83        169.1820   178.8170   177.7930 ha         1 UCR       0.114000
    175 H84        170.5430   177.6940   176.0330 ha         1 UCR       0.114000
    176 H86        175.1400   177.7790   168.5460 hc         1 UCR       0.057200
    177 H85        175.8630   179.3030   168.1300 hc         1 UCR       0.057200
    178 H88        176.5960   177.7330   166.4940 hc         1 UCR       0.054200
    179 H87        175.5450   178.8850   165.6940 hc         1 UCR       0.054200
    180 H90        173.7400   177.2500   165.5250 h1         1 UCR       0.079200
    181 H89        175.2240   176.5160   164.9200 h1         1 UCR       0.079200
    182 C22        174.3090   183.3910   173.0400 c3         1 UCR       0.091300
    183 C24        170.4630   175.4570   169.3750 c          1 UCR       0.532600
    184 O2         170.7560   183.8840   173.6300 o          1 UCR      -0.611100
    185 O5         167.2100   179.7970   166.6960 o          1 UCR      -0.482000
    186 O16        171.8430   182.5080   170.6140 o          1 UCR      -0.633100
    187 O12        176.3600   174.0180   173.9740 o          1 UCR      -0.457000
    188 O10        174.0300   177.6850   173.3770 o          1 UCR      -0.607100
    189 O13        179.3460   172.9460   175.5660 o          1 UCR      -0.610100
    190 O14        179.4130   182.9920   176.8580 oh         1 UCR      -0.654000
    191 H27        173.9070   184.0020   173.8570 h1         1 UCR       0.046700
    192 H26        175.1170   182.7550   173.4250 h1         1 UCR       0.046700
    193 H28        174.7210   184.0770   172.2930 h1         1 UCR       0.046700
    194 H19        180.2110   183.2800   177.3520 ho         1 UCR       0.444000
@<TRIPOS>BOND
     1     1    14 1   
     2     1    17 1   
     3     1    96 1   
     4     2    15 ar  
     5     2    47 ar  
     6     3    17 1   
     7     3    18 2   
     8     3    35 1   
     9     4    21 1   
    10     4    22 2   
    11     4    40 1   
    12     5     6 1   
    13     5     9 1   
    14     5    97 1   
    15     5    98 1   
    16     6     7 1   
    17     6    99 1   
    18     6   100 1   
    19     7    24 1   
    20     7    32 1   
    21     7   101 1   
    22     8    10 1   
    23     8    36 1   
    24     8    40 1   
    25     8   102 1   
    26     9    21 1   
    27     9    39 1   
    28    10    41 ar  
    29    10    44 ar  
    30    11    41 ar  
    31    11    43 ar  
    32    11   103 1   
    33    12    43 ar  
    34    12    44 ar  
    35    12   104 1   
    36    13    14 1   
    37    13    20 1   
    38    13    45 1   
    39    13   105 1   
    40    14    29 2   
    41    15    16 ar  
    42    15   106 1   
    43    16    49 ar  
    44    16   107 1   
    45    17    92 1   
    46    17   108 1   
    47    19    63 ar  
    48    19    91 ar  
    49    19   109 1   
    50    20   110 1   
    51    20   183 1   
    52    21    32 1   
    53    21   111 1   
    54    23    26 1   
    55    23    51 1   
    56    23    94 1   
    57    24   112 1   
    58    25    26 2   
    59    25    53 1   
    60    27    36 1   
    61    27    45 1   
    62    28    81 1   
    63    28    87 2   
    64    30    65 1   
    65    30    69 1   
    66    30    72 1   
    67    31   183 2   
    68    32   113 1   
    69    32   114 1   
    70    33    57 1   
    71    33    75 1   
    72    33   115 1   
    73    34    50 1   
    74    34   116 1   
    75    35    48 1   
    76    35    88 1   
    77    36   185 2   
    78    37    58 1   
    79    37    89 1   
    80    37   182 1   
    81    38    61 1   
    82    38    64 1   
    83    39    89 1   
    84    39   184 2   
    85    40   117 1   
    86    41   118 1   
    87    42    84 1   
    88    42    87 1   
    89    43   119 1   
    90    44   120 1   
    91    45    46 1   
    92    45   121 1   
    93    46   122 1   
    94    46   123 1   
    95    46   124 1   
    96    47    50 ar  
    97    47   183 1   
    98    48    58 1   
    99    48    70 1   
   100    48   125 1   
   101    49    50 ar  
   102    49   126 1   
   103    51    53 2   
   104    51   127 1   
   105    52    63 1   
   106    52    89 1   
   107    52   128 1   
   108    52   129 1   
   109    53    86 1   
   110    54    61 1   
   111    54    73 1   
   112    54    77 1   
   113    54   130 1   
   114    55    56 2   
   115    55    57 1   
   116    55   131 1   
   117    56    60 1   
   118    56   132 1   
   119    57   188 2   
   120    58   186 2   
   121    59    62 1   
   122    59    87 1   
   123    59   133 1   
   124    59   134 1   
   125    60    61 1   
   126    60    86 1   
   127    60   135 1   
   128    61   136 1   
   129    62    71 1   
   130    62    95 1   
   131    62   137 1   
   132    63    74 ar  
   133    64    65 1   
   134    64   187 2   
   135    65    67 1   
   136    65   138 1   
   137    66    76 2   
   138    66    78 1   
   139    66   139 1   
   140    67    68 1   
   141    67   140 1   
   142    67   141 1   
   143    68    69 1   
   144    68   142 1   
   145    68   143 1   
   146    69   144 1   
   147    69   145 1   
   148    70    82 1   
   149    70   146 1   
   150    70   147 1   
   151    71    80 1   
   152    71   148 1   
   153    71   149 1   
   154    72    81 1   
   155    72   189 2   
   156    73   150 1   
   157    73   151 1   
   158    73   152 1   
   159    74    85 ar  
   160    74   153 1   
   161    75    76 1   
   162    75   154 1   
   163    75   155 1   
   164    76   156 1   
   165    77   157 1   
   166    77   158 1   
   167    77   159 1   
   168    78    79 2   
   169    78    83 1   
   170    79    80 1   
   171    79   160 1   
   172    80   161 1   
   173    80   190 1   
   174    81    84 2   
   175    82    88 1   
   176    82   162 1   
   177    82   163 1   
   178    83   164 1   
   179    83   165 1   
   180    83   166 1   
   181    84   167 1   
   182    85    90 ar  
   183    85   168 1   
   184    86   169 1   
   185    86   170 1   
   186    88   171 1   
   187    88   172 1   
   188    89   173 1   
   189    90    91 ar  
   190    90   174 1   
   191    91   175 1   
   192    92    93 1   
   193    92   176 1   
   194    92   177 1   
   195    93    94 1   
   196    93   178 1   
   197    93   179 1   
   198    94   180 1   
   199    94   181 1   
   200   182   191 1   
   201   182   192 1   
   202   182   193 1   
   203   190   194 1   
@<TRIPOS>SUBSTRUCTURE
     1 UCR         1 TEMP              0 ****  ****    0 ROOT
