@<TRIPOS>MOLECULE
UCT
   78    81     1     0     0
SMALL
No Charge or Current Charge


@<TRIPOS>ATOM
      1 CAJ         12.4190    -2.6260     9.3130 c3         1 UCT       0.149900
      2 OAI         13.5280    -2.0280    10.0070 os         1 UCT      -0.337100
      3 CAB         13.3590    -1.0650    10.9900 ca         1 UCT       0.095100
      4 CAC         12.0750    -0.6400    11.3990 ca         1 UCT      -0.170000
      5 CAA         14.5100    -0.4950    11.5870 ca         1 UCT       0.101100
      6 OAG         15.7590    -0.9260    11.1700 os         1 UCT      -0.340100
      7 CAH         16.9810    -0.3990    11.7170 c3         1 UCT       0.145900
      8 CAF         14.3580     0.4930    12.5860 ca         1 UCT      -0.154000
      9 CAE         13.0760     0.9100    12.9810 ca         1 UCT      -0.082000
     10 CAD         11.9290     0.3510    12.3890 ca         1 UCT      -0.089300
     11 CAK         10.5410     0.8290    12.8070 c3         1 UCT      -0.022100
     12 CAL          9.6990     1.3760    11.6290 c3         1 UCT      -0.064400
     13 CAM         10.4210     2.4710    10.7950 c3         1 UCT       0.226600
     14 CAN         10.8380     3.6750    11.6420 ca         1 UCT      -0.096300
     15 CAP         12.2030     4.0000    11.7800 ca         1 UCT      -0.140000
     16 CAT          9.8770     4.4670    12.3020 ca         1 UCT      -0.168000
     17 CAS         10.2740     5.5600    13.0890 ca         1 UCT      -0.090000
     18 CAR         11.6370     5.8720    13.2280 ca         1 UCT      -0.166000
     19 CAQ         12.6100     5.0850    12.5730 ca         1 UCT       0.189100
     20 OAU         13.9660     5.3440    12.6610 os         1 UCT      -0.339100
     21 CAV         14.5190     6.3670    13.5300 c3         1 UCT       0.008600
     22 CAW         14.4360     6.0340    15.0530 c          1 UCT       0.693000
     23 OAY         14.7050     6.9310    15.8410 o          1 UCT      -0.720000
     24 OAX         14.1110     4.9100    15.4140 o          1 UCT      -0.720000
     25 OAO          9.5160     2.9410     9.7780 os         1 UCT      -0.453100
     26 C            9.2720     2.1550     8.6780 c          1 UCT       0.581100
     27 O            9.9030     1.1340     8.4330 o          1 UCT      -0.482000
     28 CA           8.2130     2.7360     7.6880 c6         1 UCT       0.041700
     29 CB           7.2950     3.8240     8.3200 c6         1 UCT      -0.072400
     30 CBD          6.2690     3.1950     9.2800 c6         1 UCT      -0.078400
     31 CBE          5.4080     2.1880     8.4990 c6         1 UCT      -0.092400
     32 CBF          6.2590     1.1150     7.7740 c6         1 UCT       0.097000
     33 N            7.4200     1.6540     6.9960 n          1 UCT      -0.390800
     34 CBH          8.0220     0.9350     5.9250 c          1 UCT       0.615100
     35 OBI          8.9840     1.4210     5.3380 o          1 UCT      -0.620100
     36 CBJ          7.3770    -0.3860     5.4070 c3         1 UCT      -0.064400
     37 CBK          8.4390    -1.3900     4.8980 c3         1 UCT      -0.085100
     38 CBL          6.3250    -0.1370     4.3480 cc         1 UCT      -0.195300
     39 SBP          6.6510     0.8730     2.9300 ss         1 UCT       0.315000
     40 CBO          5.0080     0.6210     2.3490 cc         1 UCT      -0.047000
     41 ClBQ         4.4200     1.3250     0.8730 cl         1 UCT      -0.168000
     42 CBN          4.2860    -0.1770     3.1950 cd         1 UCT      -0.126000
     43 CBM          5.0320    -0.6050     4.3280 cd         1 UCT      -0.141000
     44 HAL         12.7810    -3.3500     8.5720 h1         1 UCT       0.034367
     45 HAM         11.7610    -3.1570    10.0130 h1         1 UCT       0.034367
     46 HAK         11.8330    -1.8630     8.7850 h1         1 UCT       0.034367
     47 HAC         11.1810    -1.0680    10.9560 ha         1 UCT       0.108000
     48 HAH         17.8470    -0.8780    11.2440 h1         1 UCT       0.039367
     49 HAI         17.0530     0.6820    11.5410 h1         1 UCT       0.039367
     50 HAJ         17.0380    -0.5860    12.7970 h1         1 UCT       0.039367
     51 HAF         15.2190     0.9520    13.0630 ha         1 UCT       0.133000
     52 HAE         12.9780     1.6790    13.7460 ha         1 UCT       0.150000
     53 HAO         10.6190     1.6090    13.5750 hc         1 UCT       0.054200
     54 HAN          9.9930     0.0020    13.2760 hc         1 UCT       0.054200
     55 HAQ          8.7580     1.7780    12.0240 hc         1 UCT       0.045200
     56 HAP          9.4240     0.5390    10.9770 hc         1 UCT       0.045200
     57 HAR         11.3220     2.0410    10.3360 h1         1 UCT       0.078700
     58 HAS         12.9600     3.4020    11.2790 ha         1 UCT       0.127000
     59 HAV          8.8190     4.2370    12.2020 ha         1 UCT       0.095000
     60 HAU          9.5240     6.1660    13.5930 ha         1 UCT       0.096000
     61 HAT         11.9180     6.7220    13.8410 ha         1 UCT       0.140000
     62 HAW         15.5830     6.5000    13.2990 h1         1 UCT       0.036700
     63 HAX         14.0300     7.3330    13.3530 h1         1 UCT       0.036700
     64 HA           8.8240     3.2620     6.9420 h1         1 UCT       0.106700
     65 HB2          7.8860     4.5930     8.8360 hc         1 UCT       0.057700
     66 HB1          6.7620     4.3520     7.5170 hc         1 UCT       0.057700
     67 HBD          6.7760     2.6960    10.1180 hc         1 UCT       0.054200
     68 HB3          5.6320     3.9770     9.7160 hc         1 UCT       0.054200
     69 HBE          4.6930     1.6990     9.1750 hc         1 UCT       0.046700
     70 HB4          4.8070     2.7290     7.7550 hc         1 UCT       0.046700
     71 HB5          5.5750     0.5720     7.1080 h1         1 UCT       0.060700
     72 HBF          6.6400     0.3980     8.5150 h1         1 UCT       0.060700
     73 HBJ          6.8620    -0.8690     6.2420 hc         1 UCT       0.066700
     74 HBK          9.1730    -1.6050     5.6840 hc         1 UCT       0.050367
     75 HB6          7.9660    -2.3350     4.6060 hc         1 UCT       0.050367
     76 HB7          8.9750    -0.9940     4.0270 hc         1 UCT       0.050367
     77 HBN          3.2500    -0.4520     3.0180 ha         1 UCT       0.138000
     78 HBM          4.6160    -1.2420     5.1030 ha         1 UCT       0.130000
@<TRIPOS>BOND
     1     1     2 1   
     2     1    44 1   
     3     1    45 1   
     4     1    46 1   
     5     2     3 1   
     6     3     4 ar  
     7     3     5 ar  
     8     4    10 ar  
     9     4    47 1   
    10     5     6 1   
    11     5     8 ar  
    12     6     7 1   
    13     7    48 1   
    14     7    49 1   
    15     7    50 1   
    16     8     9 ar  
    17     8    51 1   
    18     9    10 ar  
    19     9    52 1   
    20    10    11 1   
    21    11    12 1   
    22    11    53 1   
    23    11    54 1   
    24    12    13 1   
    25    12    55 1   
    26    12    56 1   
    27    13    14 1   
    28    13    25 1   
    29    13    57 1   
    30    14    15 ar  
    31    14    16 ar  
    32    15    19 ar  
    33    15    58 1   
    34    16    17 ar  
    35    16    59 1   
    36    17    18 ar  
    37    17    60 1   
    38    18    19 ar  
    39    18    61 1   
    40    19    20 1   
    41    20    21 1   
    42    21    22 1   
    43    21    62 1   
    44    21    63 1   
    45    22    23 1   
    46    22    24 1   
    47    25    26 1   
    48    26    27 2   
    49    26    28 1   
    50    28    29 1   
    51    28    33 1   
    52    28    64 1   
    53    29    30 1   
    54    29    65 1   
    55    29    66 1   
    56    30    31 1   
    57    30    67 1   
    58    30    68 1   
    59    31    32 1   
    60    31    69 1   
    61    31    70 1   
    62    32    33 1   
    63    32    71 1   
    64    32    72 1   
    65    33    34 1   
    66    34    35 2   
    67    34    36 1   
    68    36    37 1   
    69    36    38 1   
    70    36    73 1   
    71    37    74 1   
    72    37    75 1   
    73    37    76 1   
    74    38    39 1   
    75    38    43 2   
    76    39    40 1   
    77    40    41 1   
    78    40    42 2   
    79    42    43 1   
    80    42    77 1   
    81    43    78 1   
@<TRIPOS>SUBSTRUCTURE
     1 UCT         1 TEMP              0 ****  ****    0 ROOT
