@<TRIPOS>MOLECULE
UCT
   78    81     1     0     0
SMALL
abcg2


@<TRIPOS>ATOM
      1 CAJ         15.4040    -1.7710     8.0180 c3         1 UCT       0.149900
      2 OAI         15.9230    -0.9600     9.0680 os         1 UCT      -0.337100
      3 CAB         15.0650    -0.5500    10.0430 ca         1 UCT       0.095100
      4 CAC         13.7180    -0.8760    10.0930 ca         1 UCT      -0.170000
      5 CAA         15.6270     0.2600    11.0560 ca         1 UCT       0.101100
      6 OAG         16.9530     0.5470    10.9260 os         1 UCT      -0.340100
      7 CAH         17.5520     1.3750    11.9190 c3         1 UCT       0.145900
      8 CAF         14.8180     0.7010    12.0910 ca         1 UCT      -0.154000
      9 CAE         13.4640     0.3580    12.1290 ca         1 UCT      -0.082000
     10 CAD         12.8970    -0.4240    11.1360 ca         1 UCT      -0.089300
     11 CAK         11.4280    -0.7730    11.1560 c3         1 UCT      -0.022100
     12 CAL         10.6330    -0.2530     9.9500 c3         1 UCT      -0.064400
     13 CAM         10.7500     1.2530     9.7500 c3         1 UCT       0.226600
     14 CAN         10.3600     2.0730    10.9530 ca         1 UCT      -0.096300
     15 CAP         11.3040     2.8860    11.5580 ca         1 UCT      -0.140000
     16 CAT          9.0680     2.0020    11.4810 ca         1 UCT      -0.168000
     17 CAS          8.7520     2.7420    12.6100 ca         1 UCT      -0.090000
     18 CAR          9.7030     3.5460    13.2370 ca         1 UCT      -0.166000
     19 CAQ         10.9900     3.6180    12.7070 ca         1 UCT       0.189100
     20 OAU         12.0000     4.3700    13.2190 os         1 UCT      -0.339100
     21 CAV         11.7630     5.1190    14.4100 c3         1 UCT       0.008600
     22 CAW         11.7120     4.2980    15.7180 c          1 UCT       0.693000
     23 OAY         11.3690     4.9690    16.7230 o          1 UCT      -0.720000
     24 OAX         12.0320     3.0890    15.6810 o          1 UCT      -0.720000
     25 OAO          9.8450     1.5710     8.6450 os         1 UCT      -0.453100
     26 C           10.1250     2.6280     7.8830 c          1 UCT       0.581100
     27 O           11.1360     3.2880     7.9670 o          1 UCT      -0.482000
     28 CA           9.0300     2.8750     6.8410 c6         1 UCT       0.041700
     29 CB           9.0390     4.3110     6.3130 c6         1 UCT      -0.072400
     30 CBD          8.5090     5.3060     7.3450 c6         1 UCT      -0.078400
     31 CBE          7.1440     4.8630     7.8680 c6         1 UCT      -0.092400
     32 CBF          7.2050     3.4320     8.3910 c6         1 UCT       0.097000
     33 N            7.7090     2.5210     7.3570 n          1 UCT      -0.390800
     34 CBH          7.1240     1.3790     6.9280 c          1 UCT       0.615100
     35 OBI          7.6740     0.6290     6.1180 o          1 UCT      -0.620100
     36 CBJ          5.7710     0.9830     7.5200 c3         1 UCT      -0.064400
     37 CBK          6.0360     0.1280     8.7770 c3         1 UCT      -0.085100
     38 CBL          4.8850     0.2820     6.5330 cc         1 UCT      -0.195300
     39 SBP          5.3940    -1.0760     5.5760 ss         1 UCT       0.315000
     40 CBO          3.7920    -1.2840     4.9570 cc         1 UCT      -0.047000
     41 CLBQ         3.4570    -2.5290     3.8080 cl         1 UCT      -0.168000
     42 CBN          2.9180    -0.3540     5.4320 cd         1 UCT      -0.126000
     43 CBM          3.5550     0.5350     6.3430 cd         1 UCT      -0.141000
     44 HAL         16.2420    -1.9720     7.3550 h1         1 UCT       0.034367
     45 HAM         15.0080    -2.7130     8.4070 h1         1 UCT       0.034367
     46 HAK         14.6170    -1.2480     7.4680 h1         1 UCT       0.034367
     47 HAC         13.2890    -1.4910     9.3140 ha         1 UCT       0.108000
     48 HAH         18.5920     1.4900    11.6240 h1         1 UCT       0.039367
     49 HAI         17.0710     2.3560    11.9570 h1         1 UCT       0.039367
     50 HAJ         17.5000     0.9080    12.9060 h1         1 UCT       0.039367
     51 HAF         15.2270     1.3190    12.8770 ha         1 UCT       0.133000
     52 HAE         12.8500     0.7270    12.9400 ha         1 UCT       0.150000
     53 HAO         10.9850    -0.3830    12.0750 hc         1 UCT       0.054200
     54 HAN         11.3070    -1.8590    11.1860 hc         1 UCT       0.054200
     55 HAQ          9.5800    -0.5120    10.0790 hc         1 UCT       0.045200
     56 HAP         10.9770    -0.7410     9.0350 hc         1 UCT       0.045200
     57 HAR         11.7590     1.5170     9.4420 h1         1 UCT       0.078700
     58 HAS         12.3070     2.9520    11.1570 ha         1 UCT       0.127000
     59 HAV          8.3220     1.3740    11.0130 ha         1 UCT       0.095000
     60 HAU          7.7520     2.6920    13.0240 ha         1 UCT       0.096000
     61 HAT          9.4340     4.0930    14.1290 ha         1 UCT       0.140000
     62 HAW         12.6050     5.8080    14.4810 h1         1 UCT       0.036700
     63 HAX         10.8510     5.7130    14.3150 h1         1 UCT       0.036700
     64 HA           9.2460     2.1820     6.0280 h1         1 UCT       0.106700
     65 HB2         10.0520     4.5670     6.0050 hc         1 UCT       0.057700
     66 HB1          8.4080     4.3330     5.4210 hc         1 UCT       0.057700
     67 HBD          9.2100     5.3750     8.1820 hc         1 UCT       0.054200
     68 HB3          8.4440     6.3010     6.9010 hc         1 UCT       0.054200
     69 HBE          6.8070     5.5170     8.6750 hc         1 UCT       0.046700
     70 HB4          6.4000     4.9160     7.0670 hc         1 UCT       0.046700
     71 HB5          6.2320     3.1060     8.7360 h1         1 UCT       0.060700
     72 HBF          7.8810     3.3750     9.2510 h1         1 UCT       0.060700
     73 HBJ          5.2130     1.8670     7.8190 hc         1 UCT       0.066700
     74 HBK          6.6110     0.6920     9.5130 hc         1 UCT       0.050367
     75 HB6          5.0890    -0.1700     9.2270 hc         1 UCT       0.050367
     76 HB7          6.5970    -0.7710     8.5160 hc         1 UCT       0.050367
     77 HBN          1.8780    -0.3040     5.1460 ha         1 UCT       0.138000
     78 HBM          3.0380     1.3370     6.8530 ha         1 UCT       0.130000
@<TRIPOS>BOND
     1     1     2 1   
     2     1    44 1   
     3     1    45 1   
     4     1    46 1   
     5     2     3 1   
     6     3     4 ar  
     7     3     5 ar  
     8     4    10 ar  
     9     4    47 1   
    10     5     6 1   
    11     5     8 ar  
    12     6     7 1   
    13     7    48 1   
    14     7    49 1   
    15     7    50 1   
    16     8     9 ar  
    17     8    51 1   
    18     9    10 ar  
    19     9    52 1   
    20    10    11 1   
    21    11    12 1   
    22    11    53 1   
    23    11    54 1   
    24    12    13 1   
    25    12    55 1   
    26    12    56 1   
    27    13    14 1   
    28    13    25 1   
    29    13    57 1   
    30    14    15 ar  
    31    14    16 ar  
    32    15    19 ar  
    33    15    58 1   
    34    16    17 ar  
    35    16    59 1   
    36    17    18 ar  
    37    17    60 1   
    38    18    19 ar  
    39    18    61 1   
    40    19    20 1   
    41    20    21 1   
    42    21    22 1   
    43    21    62 1   
    44    21    63 1   
    45    22    23 1   
    46    22    24 1   
    47    25    26 1   
    48    26    27 2   
    49    26    28 1   
    50    28    29 1   
    51    28    33 1   
    52    28    64 1   
    53    29    30 1   
    54    29    65 1   
    55    29    66 1   
    56    30    31 1   
    57    30    67 1   
    58    30    68 1   
    59    31    32 1   
    60    31    69 1   
    61    31    70 1   
    62    32    33 1   
    63    32    71 1   
    64    32    72 1   
    65    33    34 1   
    66    34    35 2   
    67    34    36 1   
    68    36    37 1   
    69    36    38 1   
    70    36    73 1   
    71    37    74 1   
    72    37    75 1   
    73    37    76 1   
    74    38    39 1   
    75    38    43 2   
    76    39    40 1   
    77    40    41 1   
    78    40    42 2   
    79    42    43 1   
    80    42    77 1   
    81    43    78 1   
@<TRIPOS>SUBSTRUCTURE
     1 UCT         1 TEMP              0 ****  ****    0 ROOT
