@<TRIPOS>MOLECULE
UCU
   14    13     1     0     0
SMALL
abcg2


@<TRIPOS>ATOM
      1 CAA         42.3210    30.5960    31.2460 c          1 UCU       0.687000
      2 CAB         42.5160    30.4380    29.7180 c3         1 UCU       0.022300
      3 CAC         41.9290    29.1240    29.1970 c3         1 UCU      -0.061400
      4 CAD         40.4430    28.9490    29.4970 c3         1 UCU      -0.077100
      5 OAE         41.6430    31.5980    31.6050 o          1 UCU      -0.728500
      6 OAF         42.8410    29.7330    31.9860 o          1 UCU      -0.728500
      7 OAG         41.9370    31.5580    29.0470 oh         1 UCU      -0.720000
      8 H1          43.5960    30.4360    29.5260 h1         1 UCU       0.026700
      9 H2          42.5000    28.3020    29.6350 hc         1 UCU       0.021200
     10 H3          42.0970    29.0870    28.1160 hc         1 UCU       0.021200
     11 H4          40.0640    28.0230    29.0590 hc         1 UCU       0.022367
     12 H5          40.2600    28.9070    30.5740 hc         1 UCU       0.022367
     13 H6          39.8600    29.7770    29.0890 hc         1 UCU       0.022367
     14 H8          41.5400    32.0590    29.7880 ho         1 UCU       0.470000
@<TRIPOS>BOND
     1     1     2 1   
     2     1     5 1   
     3     1     6 1   
     4     2     3 1   
     5     2     7 1   
     6     2     8 1   
     7     3     4 1   
     8     3     9 1   
     9     3    10 1   
    10     4    11 1   
    11     4    12 1   
    12     4    13 1   
    13     7    14 1   
@<TRIPOS>SUBSTRUCTURE
     1 UCU         1 TEMP              0 ****  ****    0 ROOT
