@<TRIPOS>MOLECULE
UCU
   14    13     1     0     0
SMALL
No Charge or Current Charge


@<TRIPOS>ATOM
      1 CAA         42.3630    30.5860    31.3020 c          1 UCU       0.687000
      2 CAB         42.5270    30.4460    29.7410 c3         1 UCU       0.022300
      3 CAC         41.9160    29.1260    29.1970 c3         1 UCU      -0.061400
      4 CAD         40.4030    28.9500    29.4580 c3         1 UCU      -0.077100
      5 OAE         41.6280    31.4750    31.7180 o          1 UCU      -0.728500
      6 OAF         43.0460    29.8810    32.0320 o          1 UCU      -0.728500
      7 OAG         41.9580    31.5780    29.0300 oh         1 UCU      -0.720000
      8 H1          43.6070    30.4110    29.5450 h1         1 UCU       0.026700
      9 H2          42.4480    28.2800    29.6490 hc         1 UCU       0.021200
     10 H3          42.0990    29.0630    28.1170 hc         1 UCU       0.021200
     11 H4          40.0560    27.9970    29.0430 hc         1 UCU       0.022367
     12 H5          40.1870    28.9490    30.5330 hc         1 UCU       0.022367
     13 H6          39.8260    29.7550    28.9880 hc         1 UCU       0.022367
     14 H8          41.4830    32.0910    29.7290 ho         1 UCU       0.470000
@<TRIPOS>BOND
     1     1     2 1   
     2     1     5 1   
     3     1     6 1   
     4     2     3 1   
     5     2     7 1   
     6     2     8 1   
     7     3     4 1   
     8     3     9 1   
     9     3    10 1   
    10     4    11 1   
    11     4    12 1   
    12     4    13 1   
    13     7    14 1   
@<TRIPOS>SUBSTRUCTURE
     1 UCU         1 TEMP              0 ****  ****    0 ROOT
