@<TRIPOS>MOLECULE
UCV
   25    24     1     0     0
SMALL
bcc


@<TRIPOS>ATOM
      1 CG2         -6.2160    12.6220   -28.2880 c3         1 UCV      -0.086100
      2 CB          -6.8040    13.4680   -27.1620 c3         1 UCV      -0.050700
      3 CG1         -7.8440    14.4290   -27.7350 c3         1 UCV      -0.086100
      4 CA          -5.7030    14.1990   -26.3820 c3         1 UCV       0.133500
      5 N1          -4.7170    13.2430   -25.8990 n8         1 UCV      -0.879800
      6 C2          -6.2880    15.0680   -25.2570 c3         1 UCV       0.080000
      7 N2          -5.2770    15.7060   -24.4460 ns         1 UCV      -0.602900
      8 C           -4.6740    16.8640   -24.8070 c          1 UCV       0.772100
      9 O           -4.9770    17.4830   -25.8220 o          1 UCV      -0.635100
     10 N3          -3.7360    17.3270   -23.9270 nt         1 UCV      -0.664000
     11 H1          -5.5200    11.8740   -27.9150 hc         1 UCV       0.036367
     12 H2          -7.0070    12.1070   -28.8370 hc         1 UCV       0.036367
     13 H3          -5.6780    13.2510   -29.0010 hc         1 UCV       0.036367
     14 H4          -7.3160    12.7960   -26.4600 hc         1 UCV       0.035700
     15 H5          -8.4080    14.9590   -26.9670 hc         1 UCV       0.036367
     16 H6          -7.3720    15.1780   -28.3760 hc         1 UCV       0.036367
     17 H7          -8.5680    13.8860   -28.3440 hc         1 UCV       0.036367
     18 H8          -5.1880    14.8680   -27.0820 h1         1 UCV       0.081700
     19 H9          -4.0080    13.7310   -25.3640 hn         1 UCV       0.331800
     20 H10         -5.1580    12.6000   -25.2500 hn         1 UCV       0.331800
     21 H12         -6.9480    15.8350   -25.6610 h1         1 UCV       0.057700
     22 H13         -6.8920    14.4440   -24.5930 h1         1 UCV       0.057700
     23 H14         -4.9780    15.2360   -23.6080 hn         1 UCV       0.304500
     24 H15         -3.1160    18.0380   -24.2760 hn         1 UCV       0.299500
     25 H16         -3.3130    16.6960   -23.2660 hn         1 UCV       0.299500
@<TRIPOS>BOND
     1     1     2 1   
     2     1    11 1   
     3     1    12 1   
     4     1    13 1   
     5     2     3 1   
     6     2     4 1   
     7     2    14 1   
     8     3    15 1   
     9     3    16 1   
    10     3    17 1   
    11     4     5 1   
    12     4     6 1   
    13     4    18 1   
    14     5    19 1   
    15     5    20 1   
    16     6     7 1   
    17     6    21 1   
    18     6    22 1   
    19     7     8 1   
    20     7    23 1   
    21     8     9 2   
    22     8    10 1   
    23    10    24 1   
    24    10    25 1   
@<TRIPOS>SUBSTRUCTURE
     1 UCV         1 TEMP              0 ****  ****    0 ROOT
