@<TRIPOS>MOLECULE
UCV
   25    24     1     0     0
SMALL
No Charge or Current Charge


@<TRIPOS>ATOM
      1 CG2         -6.2200    12.6220   -28.3750 c3         1 UCV      -0.086100
      2 CB          -6.8120    13.4450   -27.2000 c3         1 UCV      -0.050700
      3 CG1         -7.9380    14.3700   -27.7310 c3         1 UCV      -0.086100
      4 CA          -5.7140    14.2260   -26.4040 c3         1 UCV       0.133500
      5 N1          -4.6710    13.3010   -25.8900 n8         1 UCV      -0.990200
      6 C2          -6.2850    15.0790   -25.2280 c3         1 UCV       0.080000
      7 N2          -5.2470    15.7540   -24.4300 ns         1 UCV      -0.535900
      8 C           -4.5100    16.8190   -24.8630 c          1 UCV       0.638100
      9 O           -4.6310    17.3420   -25.9530 o          1 UCV      -0.635100
     10 N3          -3.6240    17.2530   -23.9580 nt         1 UCV      -0.597000
     11 H1          -5.5120    11.8650   -28.0180 hc         1 UCV       0.036367
     12 H2          -7.0130    12.0950   -28.9180 hc         1 UCV       0.036367
     13 H3          -5.6970    13.2760   -29.0840 hc         1 UCV       0.036367
     14 H4          -7.2840    12.7320   -26.5120 hc         1 UCV       0.035700
     15 H5          -8.5020    14.8260   -26.9100 hc         1 UCV       0.036367
     16 H6          -7.5230    15.1720   -28.3550 hc         1 UCV       0.036367
     17 H7          -8.6530    13.8020   -28.3380 hc         1 UCV       0.036367
     18 H8          -5.2270    14.9220   -27.1020 h1         1 UCV       0.081700
     19 H9          -4.0510    13.8380   -25.2730 hn         1 UCV       0.387000
     20 H10         -5.1090    12.6240   -25.2580 hn         1 UCV       0.387000
     21 H12         -6.9600    15.8490   -25.6240 h1         1 UCV       0.057700
     22 H13         -6.8720    14.4340   -24.5600 h1         1 UCV       0.057700
     23 H14         -5.0680    15.4210   -23.4910 hn         1 UCV       0.304500
     24 H15         -3.0350    18.0390   -24.1880 hn         1 UCV       0.299500
     25 H16         -3.5470    16.8020   -23.0600 hn         1 UCV       0.299500
@<TRIPOS>BOND
     1     1     2 1   
     2     1    11 1   
     3     1    12 1   
     4     1    13 1   
     5     2     3 1   
     6     2     4 1   
     7     2    14 1   
     8     3    15 1   
     9     3    16 1   
    10     3    17 1   
    11     4     5 1   
    12     4     6 1   
    13     4    18 1   
    14     5    19 1   
    15     5    20 1   
    16     6     7 1   
    17     6    21 1   
    18     6    22 1   
    19     7     8 1   
    20     7    23 1   
    21     8     9 2   
    22     8    10 1   
    23    10    24 1   
    24    10    25 1   
@<TRIPOS>SUBSTRUCTURE
     1 UCV         1 TEMP              0 ****  ****    0 ROOT
