@<TRIPOS>MOLECULE
UCW
   75    78     1     0     0
SMALL
No Charge or Current Charge


@<TRIPOS>ATOM
      1 C4         -20.0590    -4.7650    -6.1160 ca         1 UCW       0.459900
      2 C5         -19.1590    -5.2330    -7.0670 ca         1 UCW      -0.384900
      3 C6         -19.6060    -6.0400    -8.0740 ca         1 UCW       0.158500
      4 N1         -20.8900    -6.4440    -8.1380 nb         1 UCW      -0.229000
      5 N3         -21.3430    -5.1460    -6.1450 nb         1 UCW      -0.315000
      6 CAD        -17.5670    -9.2310   -12.1100 c6         1 UCW       0.168800
      7 CAC        -17.8350   -10.0780   -13.3750 c6         1 UCW      -0.076400
      8 CAK        -17.9610   -11.5950   -13.0460 c6         1 UCW       0.184500
      9 NAJ        -18.2800   -12.4210   -14.2660 n3         1 UCW      -0.710600
     10 CAY        -17.3190   -12.2410   -15.3840 c3         1 UCW       0.150100
     11 CAI        -18.4740   -13.8670   -13.9810 c3         1 UCW       0.150100
     12 CAZ        -19.0280   -11.7590   -11.9240 c6         1 UCW      -0.076400
     13 CBA        -18.7200   -10.8630   -10.7030 c6         1 UCW       0.168800
     14 NAL        -18.6220    -9.4300   -11.0790 n3         1 UCW      -0.719600
     15 CAM        -18.4570    -8.5580    -9.8840 c3         1 UCW       0.149800
     16 NAO        -18.5260    -6.2370    -8.9200 na         1 UCW      -0.019100
     17 NAP        -17.3820    -5.5620    -8.4900 nc         1 UCW      -0.519100
     18 C2         -21.6960    -5.9830    -7.1510 ca         1 UCW       0.196900
     19 NBI        -19.7390    -3.8820    -5.1490 nv         1 UCW      -1.071900
     20 CAQ        -17.7630    -4.9800    -7.3460 cd         1 UCW       0.435500
     21 CAR        -16.8240    -4.1980    -6.5160 ca         1 UCW      -0.081900
     22 CAE        -16.7220    -4.4250    -5.1280 ca         1 UCW      -0.185000
     23 CAF        -15.7890    -3.7090    -4.3460 ca         1 UCW       0.100100
     24 OAB        -15.6810    -3.9020    -2.9800 os         1 UCW      -0.351100
     25 CAA        -16.5180    -4.8260    -2.2610 c3         1 UCW       0.150900
     26 CBD        -15.9350    -3.2910    -7.1220 ca         1 UCW      -0.095000
     27 CBE        -15.0030    -2.5750    -6.3520 ca         1 UCW      -0.085000
     28 CAS        -14.9270    -2.7710    -4.9560 ca         1 UCW      -0.038000
     29 NAT        -14.0040    -2.0760    -4.1230 ns         1 UCW      -0.145000
     30 CAU        -13.0640    -1.0970    -4.3820 c          1 UCW       0.655100
     31 OAG        -12.8340    -0.5950    -5.4730 o          1 UCW      -0.533000
     32 OAV        -12.4390    -0.7830    -3.1990 os         1 UCW      -0.478100
     33 CAW        -11.3940     0.2140    -3.1060 c3         1 UCW       0.226000
     34 CBF        -11.9580     1.6010    -3.5060 c3         1 UCW      -0.109433
     35 CAH        -11.0060     0.2160    -1.6110 c3         1 UCW      -0.109433
     36 CAX        -10.1790    -0.2210    -3.9650 c3         1 UCW      -0.109433
     37 H1         -16.5810    -9.4980   -11.7010 h1         1 UCW       0.031200
     38 H2         -17.5150    -8.1770   -12.4160 h1         1 UCW       0.031200
     39 H3         -17.0100    -9.8970   -14.0750 hc         1 UCW       0.053950
     40 H4         -18.7520    -9.7240   -13.8650 hc         1 UCW       0.053950
     41 H5         -16.9950   -11.9280   -12.6370 h1         1 UCW       0.015700
     42 H7         -17.3460   -11.2170   -15.7780 h1         1 UCW       0.029700
     43 H8         -16.2940   -12.4660   -15.0610 h1         1 UCW       0.029700
     44 H9         -17.5660   -12.9080   -16.2210 h1         1 UCW       0.029700
     45 H10        -19.3490   -14.0380   -13.3420 h1         1 UCW       0.029700
     46 H11        -18.6450   -14.4270   -14.9100 h1         1 UCW       0.029700
     47 H12        -17.5900   -14.2900   -13.4850 h1         1 UCW       0.029700
     48 H13        -20.0250   -11.5140   -12.3160 hc         1 UCW       0.053950
     49 H14        -19.0700   -12.7960   -11.5710 hc         1 UCW       0.053950
     50 H15        -19.5160   -11.0060    -9.9580 h1         1 UCW       0.031200
     51 H16        -17.7800   -11.2000   -10.2400 h1         1 UCW       0.031200
     52 H18        -19.2240    -8.8180    -9.1420 h1         1 UCW       0.045200
     53 H19        -17.4830    -8.7480    -9.4120 h1         1 UCW       0.045200
     54 H20        -17.7700    -6.7130   -10.8150 h1         1 UCW       0.079200
     55 H21        -19.5320    -6.8420   -10.6610 h1         1 UCW       0.079200
     56 H22        -22.7370    -6.3000    -7.1820 h5         1 UCW       0.046100
     57 H23        -20.4970    -3.4100    -4.6630 hn         1 UCW       0.505500
     58 H24        -18.8530    -3.3890    -5.2120 hn         1 UCW       0.505500
     59 H25        -17.3670    -5.1740    -4.6770 ha         1 UCW       0.125000
     60 H26        -16.2690    -4.8130    -1.1920 h1         1 UCW       0.042700
     61 H27        -17.5770    -4.5570    -2.3650 h1         1 UCW       0.042700
     62 H28        -16.3760    -5.8500    -2.6290 h1         1 UCW       0.042700
     63 H29        -15.9730    -3.1310    -8.1980 ha         1 UCW       0.133000
     64 H30        -14.3460    -1.8770    -6.8630 ha         1 UCW       0.140000
     65 H31        -14.0450    -2.3520    -3.1520 hn         1 UCW       0.175000
     66 H32        -12.9100     1.7960    -2.9990 hc         1 UCW       0.050144
     67 H33        -11.2560     2.3950    -3.2230 hc         1 UCW       0.050144
     68 H34        -12.1180     1.6840    -4.5870 hc         1 UCW       0.050144
     69 H35        -11.8670     0.4780    -0.9850 hc         1 UCW       0.050144
     70 H36        -10.6460    -0.7730    -1.3000 hc         1 UCW       0.050144
     71 H37        -10.2100     0.9440    -1.4150 hc         1 UCW       0.050144
     72 H38         -9.3030     0.3950    -3.7270 hc         1 UCW       0.050144
     73 H39         -9.9180    -1.2680    -3.7700 hc         1 UCW       0.050144
     74 H40        -10.3720    -0.1060    -5.0370 hc         1 UCW       0.050144
     75 CAN        -18.5800    -7.0410   -10.1540 c3         1 UCW       0.094600
@<TRIPOS>BOND
     1     1     2 ar  
     2     1     5 ar  
     3     1    19 1   
     4     2     3 ar  
     5     2    20 1   
     6     3     4 ar  
     7     3    16 1   
     8     4    18 ar  
     9     5    18 ar  
    10     6     7 1   
    11     6    14 1   
    12     6    37 1   
    13     6    38 1   
    14     7     8 1   
    15     7    39 1   
    16     7    40 1   
    17     8     9 1   
    18     8    12 1   
    19     8    41 1   
    20     9    10 1   
    21     9    11 1   
    22    10    42 1   
    23    10    43 1   
    24    10    44 1   
    25    11    45 1   
    26    11    46 1   
    27    11    47 1   
    28    12    13 1   
    29    12    48 1   
    30    12    49 1   
    31    13    14 1   
    32    13    50 1   
    33    13    51 1   
    34    14    15 1   
    35    15    52 1   
    36    15    53 1   
    37    15    75 1   
    38    16    17 1   
    39    16    75 1   
    40    17    20 2   
    41    18    56 1   
    42    19    57 1   
    43    19    58 1   
    44    20    21 1   
    45    21    22 ar  
    46    21    26 ar  
    47    22    23 ar  
    48    22    59 1   
    49    23    24 1   
    50    23    28 ar  
    51    24    25 1   
    52    25    60 1   
    53    25    61 1   
    54    25    62 1   
    55    26    27 ar  
    56    26    63 1   
    57    27    28 ar  
    58    27    64 1   
    59    28    29 1   
    60    29    30 1   
    61    29    65 1   
    62    30    31 2   
    63    30    32 1   
    64    32    33 1   
    65    33    34 1   
    66    33    35 1   
    67    33    36 1   
    68    34    66 1   
    69    34    67 1   
    70    34    68 1   
    71    35    69 1   
    72    35    70 1   
    73    35    71 1   
    74    36    72 1   
    75    36    73 1   
    76    36    74 1   
    77    54    75 1   
    78    55    75 1   
@<TRIPOS>SUBSTRUCTURE
     1 UCW         1 TEMP              0 ****  ****    0 ROOT
