@<TRIPOS>MOLECULE
UCW
   75    78     1     0     0
SMALL
bcc


@<TRIPOS>ATOM
      1 C4         -20.2360    -4.3690    -6.2440 ca         1 UCW       0.788200
      2 C5         -19.3130    -4.9520    -7.1450 ca         1 UCW      -0.515500
      3 C6         -19.8770    -5.7010    -8.1810 ca         1 UCW       0.486800
      4 N1         -21.1770    -5.9610    -8.3540 nb         1 UCW      -0.755000
      5 N3         -21.5360    -4.6330    -6.4040 nb         1 UCW      -0.841000
      6 CAD        -17.4220    -9.0910   -11.8040 c6         1 UCW       0.168800
      7 CAC        -17.5900    -9.9210   -13.0660 c6         1 UCW      -0.076400
      8 CAK        -17.7400   -11.4080   -12.7470 c6         1 UCW       0.184500
      9 NAJ        -17.9970   -12.1990   -13.9470 n3         1 UCW      -0.710600
     10 CAY        -16.9660   -12.0280   -14.9540 c3         1 UCW       0.150100
     11 CAI        -18.1510   -13.6110   -13.6520 c3         1 UCW       0.150100
     12 CAZ        -18.8600   -11.5600   -11.7180 c6         1 UCW      -0.076400
     13 CBA        -18.6450   -10.6610   -10.5110 c6         1 UCW       0.168800
     14 NAL        -18.5420    -9.2670   -10.8980 n3         1 UCW      -0.719600
     15 CAM        -18.4770    -8.3860    -9.7530 c3         1 UCW       0.149800
     16 NAO        -18.8620    -6.0900    -8.9750 na         1 UCW       0.010200
     17 NAP        -17.6810    -5.6620    -8.5030 nc         1 UCW      -0.519100
     18 C2         -21.9190    -5.4030    -7.4200 ca         1 UCW       0.722900
     19 NBI        -19.8830    -3.5610    -5.2450 nv         1 UCW      -0.961500
     20 CAQ        -17.9150    -4.9790    -7.4070 cd         1 UCW       0.435500
     21 CAR        -16.8140    -4.3880    -6.6400 ca         1 UCW      -0.081900
     22 CAE        -16.7700    -4.5700    -5.2560 ca         1 UCW      -0.203000
     23 CAF        -15.7390    -4.0240    -4.5060 ca         1 UCW       0.100100
     24 OAB        -15.6250    -4.1460    -3.1730 os         1 UCW      -0.327900
     25 CAA        -16.6110    -4.8770    -2.4700 c3         1 UCW       0.127700
     26 CBD        -15.7960    -3.6850    -7.2690 ca         1 UCW      -0.113000
     27 CBE        -14.7520    -3.1570    -6.5230 ca         1 UCW      -0.103000
     28 CAS        -14.7150    -3.3020    -5.1440 ca         1 UCW       0.054600
     29 NAT        -13.6750    -2.7910    -4.3600 ns         1 UCW      -0.471100
     30 CAU        -13.1720    -1.5280    -4.4700 c          1 UCW       0.771100
     31 OAG        -13.5140    -0.7230    -5.3050 o          1 UCW      -0.582000
     32 OAV        -12.2610    -1.3430    -3.5220 os         1 UCW      -0.454900
     33 CAW        -11.5140    -0.1050    -3.3710 c3         1 UCW       0.202800
     34 CBF        -12.4430     1.0560    -3.0400 c3         1 UCW      -0.109433
     35 CAH        -10.6070    -0.3970    -2.1820 c3         1 UCW      -0.109433
     36 CAX        -10.6690     0.1770    -4.6070 c3         1 UCW      -0.109433
     37 H1         -16.4700    -9.3640   -11.3120 h1         1 UCW       0.031200
     38 H2         -17.3340    -8.0400   -12.0840 h1         1 UCW       0.031200
     39 H3         -16.7230    -9.7370   -13.7020 hc         1 UCW       0.053950
     40 H4         -18.4740    -9.5790   -13.6150 hc         1 UCW       0.053950
     41 H5         -16.7960   -11.7400   -12.2680 h1         1 UCW       0.015700
     42 H7         -16.9450   -11.0080   -15.3350 h1         1 UCW       0.029700
     43 H8         -15.9560   -12.2720   -14.5880 h1         1 UCW       0.029700
     44 H9         -17.1760   -12.6800   -15.8020 h1         1 UCW       0.029700
     45 H10        -19.0350   -13.7980   -13.0440 h1         1 UCW       0.029700
     46 H11        -18.2800   -14.1650   -14.5820 h1         1 UCW       0.029700
     47 H12        -17.2840   -14.0410   -13.1250 h1         1 UCW       0.029700
     48 H13        -19.8160   -11.3120   -12.1910 hc         1 UCW       0.053950
     49 H14        -18.9330   -12.5860   -11.3560 hc         1 UCW       0.053950
     50 H15        -19.4880   -10.7770    -9.8250 h1         1 UCW       0.031200
     51 H16        -17.7450   -10.9970    -9.9650 h1         1 UCW       0.031200
     52 H18        -19.1580    -8.7600    -8.9850 h1         1 UCW       0.045200
     53 H19        -17.4730    -8.3560    -9.2980 h1         1 UCW       0.045200
     54 H20        -18.2960    -6.5380   -10.9030 h1         1 UCW       0.079200
     55 H21        -19.9450    -6.9830   -10.4780 h1         1 UCW       0.079200
     56 H22        -22.9870    -5.5830    -7.4860 h5         1 UCW       0.046100
     57 H23        -20.5970    -3.1400    -4.6740 hn         1 UCW       0.450300
     58 H24        -18.9350    -3.2530    -5.1160 hn         1 UCW       0.450300
     59 H25        -17.5390    -5.1630    -4.7780 ha         1 UCW       0.143000
     60 H26        -16.3300    -4.8430    -1.4210 h1         1 UCW       0.042700
     61 H27        -17.6040    -4.4340    -2.5850 h1         1 UCW       0.042700
     62 H28        -16.6500    -5.9210    -2.7930 h1         1 UCW       0.042700
     63 H29        -15.8140    -3.5430    -8.3410 ha         1 UCW       0.151000
     64 H30        -13.9560    -2.6270    -7.0260 ha         1 UCW       0.158000
     65 H31        -13.4140    -3.3170    -3.5390 hn         1 UCW       0.341500
     66 H32        -13.0850     0.8140    -2.1920 hc         1 UCW       0.050144
     67 H33        -11.8440     1.9230    -2.7620 hc         1 UCW       0.050144
     68 H34        -13.0700     1.3420    -3.8820 hc         1 UCW       0.050144
     69 H35        -11.1880    -0.6290    -1.2880 hc         1 UCW       0.050144
     70 H36         -9.9380    -1.2340    -2.3870 hc         1 UCW       0.050144
     71 H37         -9.9930     0.4760    -1.9650 hc         1 UCW       0.050144
     72 H38         -9.9830     0.9970    -4.3890 hc         1 UCW       0.050144
     73 H39        -10.0660    -0.6920    -4.8760 hc         1 UCW       0.050144
     74 H40        -11.2670     0.4680    -5.4680 hc         1 UCW       0.050144
     75 CAN        -18.9170    -6.9700   -10.1180 c3         1 UCW       0.065300
@<TRIPOS>BOND
     1     1     2 ar  
     2     1     5 ar  
     3     1    19 1   
     4     2     3 ar  
     5     2    20 1   
     6     3     4 ar  
     7     3    16 1   
     8     4    18 ar  
     9     5    18 ar  
    10     6     7 1   
    11     6    14 1   
    12     6    37 1   
    13     6    38 1   
    14     7     8 1   
    15     7    39 1   
    16     7    40 1   
    17     8     9 1   
    18     8    12 1   
    19     8    41 1   
    20     9    10 1   
    21     9    11 1   
    22    10    42 1   
    23    10    43 1   
    24    10    44 1   
    25    11    45 1   
    26    11    46 1   
    27    11    47 1   
    28    12    13 1   
    29    12    48 1   
    30    12    49 1   
    31    13    14 1   
    32    13    50 1   
    33    13    51 1   
    34    14    15 1   
    35    15    52 1   
    36    15    53 1   
    37    15    75 1   
    38    16    17 1   
    39    16    75 1   
    40    17    20 2   
    41    18    56 1   
    42    19    57 1   
    43    19    58 1   
    44    20    21 1   
    45    21    22 ar  
    46    21    26 ar  
    47    22    23 ar  
    48    22    59 1   
    49    23    24 1   
    50    23    28 ar  
    51    24    25 1   
    52    25    60 1   
    53    25    61 1   
    54    25    62 1   
    55    26    27 ar  
    56    26    63 1   
    57    27    28 ar  
    58    27    64 1   
    59    28    29 1   
    60    29    30 1   
    61    29    65 1   
    62    30    31 2   
    63    30    32 1   
    64    32    33 1   
    65    33    34 1   
    66    33    35 1   
    67    33    36 1   
    68    34    66 1   
    69    34    67 1   
    70    34    68 1   
    71    35    69 1   
    72    35    70 1   
    73    35    71 1   
    74    36    72 1   
    75    36    73 1   
    76    36    74 1   
    77    54    75 1   
    78    55    75 1   
@<TRIPOS>SUBSTRUCTURE
     1 UCW         1 TEMP              0 ****  ****    0 ROOT
