@<TRIPOS>MOLECULE
UCX
   78    80     1     0     0
SMALL
abcg2


@<TRIPOS>ATOM
      1 N1         192.0640   186.9080   189.6360 nc         1 UCX      -0.663000
      2 N3         185.7220   187.1900   187.4700 ns         1 UCX      -0.512900
      3 C4         186.2200   185.9410   187.3420 c          1 UCX       0.597300
      4 C5         192.4890   187.2890   192.0600 c3         1 UCX      -0.120700
      5 C6         187.3420   183.8260   184.2770 c3         1 UCX      -0.046500
      6 C7         188.8610   183.5520   184.2640 c3         1 UCX       0.178300
      7 C8         191.3290   188.2690   192.1070 c3         1 UCX       0.190300
      8 C10        190.5580   186.5940   185.5760 c5         1 UCX       0.054700
      9 C13        189.8680   188.7940   186.3100 c5         1 UCX      -0.101400
     10 C15        190.6740   188.4190   193.4590 c3         1 UCX      -0.133400
     11 C21        188.0430   189.1010   191.2940 ce         1 UCX      -0.065200
     12 C22        188.3560   188.7620   192.5560 c2         1 UCX      -0.209200
     13 C24        192.8750   186.5980   188.5480 cc         1 UCX       0.187500
     14 C26        194.1550   186.5050   188.9810 cd         1 UCX       0.175900
     15 C28        186.9030   184.7280   183.1090 c3         1 UCX       0.011700
     16 C1         189.4300   182.8920   183.0080 c3         1 UCX      -0.065700
     17 O1         186.4480   185.2140   188.3130 o          1 UCX      -0.597100
     18 C2         186.4700   185.5300   185.9360 ce         1 UCX      -0.300200
     19 N2         191.2060   186.9500   186.8320 n          1 UCX      -0.390800
     20 O2         189.5480   184.8270   184.4200 os         1 UCX      -0.465100
     21 C3         186.9580   184.3300   185.6370 c2         1 UCX      -0.131200
     22 O5         188.8820   189.4580   194.7430 oh         1 UCX      -0.660000
     23 O6         194.1600   186.7670   190.3220 os         1 UCX      -0.267000
     24 C9         190.0030   185.1790   185.6270 c          1 UCX       0.585100
     25 C11        186.9750   188.3600   190.6200 ce         1 UCX      -0.156000
     26 C12        189.4270   187.6360   185.4140 c5         1 UCX      -0.080400
     27 C14        190.5330   188.0850   187.4850 c5         1 UCX       0.117000
     28 C16        192.3600   186.3480   187.1830 c          1 UCX       0.557600
     29 C18        185.4060   187.8010   188.7550 c3         1 UCX       0.142200
     30 C19        186.5600   188.5450   189.3640 c2         1 UCX      -0.238200
     31 C23        189.4350   189.3320   193.4210 c3         1 UCX       0.211500
     32 C25        188.7280   190.1930   190.5180 c3         1 UCX      -0.060900
     33 C27        192.8570   186.9940   190.6490 cd         1 UCX       0.446300
     34 C29        185.4550   184.8060   182.9580 c1         1 UCX      -0.152100
     35 C30        184.2610   184.8530   182.8310 c1         1 UCX      -0.240000
     36 F1         191.8290   189.5360   191.6950 f          1 UCX      -0.280000
     37 H4         185.5780   187.7380   186.6370 hn         1 UCX       0.309500
     38 H6         192.1900   186.3600   192.5550 hc         1 UCX       0.081700
     39 H5         193.3490   187.6860   192.6020 hc         1 UCX       0.081700
     40 H8         186.8670   182.8480   184.1550 hc         1 UCX       0.076700
     41 H9         189.0990   182.9330   185.1290 h1         1 UCX       0.079700
     42 H10        190.5900   187.9910   191.3580 h1         1 UCX       0.091700
     43 H11        191.2680   186.6490   184.7500 h1         1 UCX       0.092700
     44 H15        190.5960   189.4230   185.7930 hc         1 UCX       0.055200
     45 H16        189.0340   189.4170   186.6280 hc         1 UCX       0.055200
     46 H19        190.3680   187.4290   193.8050 hc         1 UCX       0.061200
     47 H20        191.3970   188.8160   194.1770 hc         1 UCX       0.061200
     48 H21        191.4830   183.4890   183.4550 hc         1 UCX       0.040867
     49 H23        191.0590   181.8660   184.0150 hc         1 UCX       0.040867
     50 H22        191.3420   182.1650   182.2960 hc         1 UCX       0.040867
     51 H27        187.6350   181.8150   182.3600 hc         1 UCX       0.040867
     52 H29        189.1570   181.1090   181.8210 hc         1 UCX       0.040867
     53 H28        188.6500   180.9240   183.5030 hc         1 UCX       0.040867
     54 H30        187.8070   187.9460   193.0200 ha         1 UCX       0.187000
     55 H35        195.1000   186.2940   188.5140 h4         1 UCX       0.079100
     56 H37        187.3240   184.3410   182.1790 hc         1 UCX       0.064700
     57 H36        187.3160   185.7310   183.2380 hc         1 UCX       0.064700
     58 H1         189.3350   183.5980   182.1790 hc         1 UCX       0.057700
     59 H2         186.2520   186.2620   185.1680 ha         1 UCX       0.176000
     60 H3         187.1530   183.6450   186.4560 ha         1 UCX       0.206000
     61 H7         189.5620   189.8330   195.3180 ho         1 UCX       0.442000
     62 H12        186.4840   187.5980   191.2210 ha         1 UCX       0.179000
     63 H13        189.2910   187.9120   184.3710 hc         1 UCX       0.060700
     64 H14        188.4870   187.2230   185.7790 hc         1 UCX       0.060700
     65 H18        191.2510   188.7050   188.0130 h1         1 UCX       0.067700
     66 H17        189.7900   187.7300   188.2010 h1         1 UCX       0.067700
     67 H24        184.5750   188.4890   188.5800 h1         1 UCX       0.059700
     68 H25        185.0590   187.0210   189.4320 h1         1 UCX       0.059700
     69 H26        187.0330   189.2840   188.7260 ha         1 UCX       0.166000
     70 H31        189.7380   190.3190   193.0670 h1         1 UCX       0.049700
     71 H33        189.4570   190.7330   191.1150 hc         1 UCX       0.044700
     72 H32        189.2500   189.7770   189.6530 hc         1 UCX       0.044700
     73 H34        187.9960   190.9060   190.1340 hc         1 UCX       0.044700
     74 H38        183.2030   184.8980   182.7200 ha         1 UCX       0.255000
     75 C17        190.9190   182.5900   183.2070 c3         1 UCX      -0.091100
     76 C20        188.6660   181.6140   182.6550 c3         1 UCX      -0.091100
     77 O3         189.9510   184.4880   186.6150 o          1 UCX      -0.451000
     78 O4         192.9630   185.5840   186.4200 o          1 UCX      -0.609100
@<TRIPOS>BOND
     1     1    13 1   
     2     1    33 2   
     3     2     3 1   
     4     2    29 1   
     5     2    37 1   
     6     3    17 2   
     7     3    18 1   
     8     4     7 1   
     9     4    33 1   
    10     4    38 1   
    11     4    39 1   
    12     5     6 1   
    13     5    15 1   
    14     5    21 1   
    15     5    40 1   
    16     6    16 1   
    17     6    20 1   
    18     6    41 1   
    19     7    10 1   
    20     7    36 1   
    21     7    42 1   
    22     8    19 1   
    23     8    24 1   
    24     8    26 1   
    25     8    43 1   
    26     9    26 1   
    27     9    27 1   
    28     9    44 1   
    29     9    45 1   
    30    10    31 1   
    31    10    46 1   
    32    10    47 1   
    33    11    12 2   
    34    11    25 1   
    35    11    32 1   
    36    12    31 1   
    37    12    54 1   
    38    13    14 2   
    39    13    28 1   
    40    14    23 1   
    41    14    55 1   
    42    15    34 1   
    43    15    56 1   
    44    15    57 1   
    45    16    58 1   
    46    16    75 1   
    47    16    76 1   
    48    18    21 2   
    49    18    59 1   
    50    19    27 1   
    51    19    28 1   
    52    20    24 1   
    53    21    60 1   
    54    22    31 1   
    55    22    61 1   
    56    23    33 1   
    57    24    77 2   
    58    25    30 2   
    59    25    62 1   
    60    26    63 1   
    61    26    64 1   
    62    27    65 1   
    63    27    66 1   
    64    28    78 2   
    65    29    30 1   
    66    29    67 1   
    67    29    68 1   
    68    30    69 1   
    69    31    70 1   
    70    32    71 1   
    71    32    72 1   
    72    32    73 1   
    73    34    35 3   
    74    35    74 1   
    75    48    75 1   
    76    49    75 1   
    77    50    75 1   
    78    51    76 1   
    79    52    76 1   
    80    53    76 1   
@<TRIPOS>SUBSTRUCTURE
     1 UCX         1 TEMP              0 ****  ****    0 ROOT
