@<TRIPOS>MOLECULE
UCX
   78    80     1     0     0
SMALL
No Charge or Current Charge


@<TRIPOS>ATOM
      1 N1         192.1310   187.2120   189.7560 nc         1 UCX      -0.663000
      2 N3         185.8820   186.9670   187.6330 ns         1 UCX      -0.512900
      3 C4         186.1020   185.6340   187.3760 c          1 UCX       0.597300
      4 C5         192.5230   187.5290   192.2040 c3         1 UCX      -0.120700
      5 C6         187.3230   183.7390   184.1100 c3         1 UCX      -0.046500
      6 C7         188.8760   183.5210   184.0590 c3         1 UCX       0.178300
      7 C8         191.3800   188.5710   192.1980 c3         1 UCX       0.190300
      8 C10        190.5370   186.5540   185.5730 c5         1 UCX       0.054700
      9 C13        189.9980   188.8260   186.1980 c5         1 UCX      -0.101400
     10 C15        190.7440   188.8100   193.5850 c3         1 UCX      -0.133400
     11 C21        188.0400   189.1970   191.4060 ce         1 UCX      -0.065200
     12 C22        188.3710   189.0140   192.7100 c2         1 UCX      -0.209200
     13 C24        192.7200   186.4220   188.7960 cc         1 UCX       0.187500
     14 C26        193.7780   185.7740   189.3700 cd         1 UCX       0.175900
     15 C28        186.7930   184.6960   182.9960 c3         1 UCX       0.011700
     16 C1         189.4640   182.9630   182.7210 c3         1 UCX      -0.065700
     17 O1         186.0030   184.7680   188.2320 o          1 UCX      -0.597100
     18 C2         186.4920   185.3460   185.9690 ce         1 UCX      -0.300200
     19 N2         191.2400   186.9420   186.8310 n          1 UCX      -0.390800
     20 O2         189.5200   184.7930   184.2970 os         1 UCX      -0.465100
     21 C3         186.8690   184.1210   185.5210 c2         1 UCX      -0.131200
     22 O5         188.9840   189.8770   194.8510 oh         1 UCX      -0.660000
     23 O6         193.9070   186.1320   190.6790 os         1 UCX      -0.267000
     24 C9         189.9240   185.1210   185.5700 c          1 UCX       0.585100
     25 C11        186.9510   188.3900   190.8160 ce         1 UCX      -0.156000
     26 C12        189.3730   187.5890   185.5140 c5         1 UCX      -0.080400
     27 C14        190.6930   188.1830   187.4230 c5         1 UCX       0.117000
     28 C16        192.3100   186.1740   187.3670 c          1 UCX       0.557600
     29 C18        185.4830   187.5200   188.9270 c3         1 UCX       0.142200
     30 C19        186.6010   188.3570   189.5070 c2         1 UCX      -0.238200
     31 C23        189.4680   189.6810   193.5230 c3         1 UCX       0.211500
     32 C25        188.7220   190.2150   190.4950 c3         1 UCX      -0.060900
     33 C27        192.8730   187.0130   190.8340 cd         1 UCX       0.446300
     34 C29        185.3250   184.7850   182.9470 c1         1 UCX      -0.152100
     35 C30        184.1180   184.8670   182.9340 c1         1 UCX      -0.240000
     36 F1         191.8560   189.7480   191.7210 f          1 UCX      -0.280000
     37 H4         185.9820   187.6030   186.8520 hn         1 UCX       0.309500
     38 H6         192.2240   186.6750   192.8220 hc         1 UCX       0.081700
     39 H5         193.4110   187.9620   192.6790 hc         1 UCX       0.081700
     40 H8         186.8700   182.7610   183.9100 hc         1 UCX       0.076700
     41 H9         189.1380   182.7900   184.8360 h1         1 UCX       0.079700
     42 H10        190.5920   188.2160   191.5210 h1         1 UCX       0.091700
     43 H11        191.2050   186.6480   184.7070 h1         1 UCX       0.092700
     44 H15        190.7270   189.3170   185.5410 hc         1 UCX       0.055200
     45 H16        189.2540   189.5770   186.4850 hc         1 UCX       0.055200
     46 H19        190.4880   187.8430   194.0350 hc         1 UCX       0.061200
     47 H20        191.4850   189.2820   194.2420 hc         1 UCX       0.061200
     48 H21        191.5110   183.7040   183.0380 hc         1 UCX       0.040867
     49 H23        191.2490   182.0400   183.6050 hc         1 UCX       0.040867
     50 H22        191.4000   182.3830   181.8680 hc         1 UCX       0.040867
     51 H27        187.7320   181.8050   182.0100 hc         1 UCX       0.040867
     52 H29        189.2770   181.2530   181.3610 hc         1 UCX       0.040867
     53 H28        188.8470   180.8810   183.0440 hc         1 UCX       0.040867
     54 H30        187.8280   188.2710   193.2950 ha         1 UCX       0.187000
     55 H35        194.4790   185.0540   188.9670 h4         1 UCX       0.079100
     56 H37        187.1280   184.3480   182.0130 hc         1 UCX       0.064700
     57 H36        187.2140   185.7000   183.1280 hc         1 UCX       0.064700
     58 H1         189.2980   183.7090   181.9340 hc         1 UCX       0.057700
     59 H2         186.4860   186.2020   185.3000 ha         1 UCX       0.176000
     60 H3         186.8800   183.2770   186.2170 ha         1 UCX       0.206000
     61 H7         189.6770   190.3760   195.3360 ho         1 UCX       0.442000
     62 H12        186.4000   187.7600   191.5170 ha         1 UCX       0.179000
     63 H13        189.0350   187.7870   184.4910 hc         1 UCX       0.060700
     64 H14        188.5050   187.2470   186.0880 hc         1 UCX       0.060700
     65 H18        191.4740   188.8430   187.8260 h1         1 UCX       0.067700
     66 H17        189.9740   187.9520   188.2200 h1         1 UCX       0.067700
     67 H24        184.5910   188.1430   188.7810 h1         1 UCX       0.059700
     68 H25        185.2150   186.7090   189.6180 h1         1 UCX       0.059700
     69 H26        187.1250   188.9580   188.7650 ha         1 UCX       0.166000
     70 H31        189.7320   190.6530   193.0880 h1         1 UCX       0.049700
     71 H33        189.3400   190.9370   191.0370 hc         1 UCX       0.044700
     72 H32        189.3720   189.7170   189.7660 hc         1 UCX       0.044700
     73 H34        187.9850   190.8050   189.9370 hc         1 UCX       0.044700
     74 H38        183.0470   184.9360   182.9360 ha         1 UCX       0.255000
     75 C17        190.9980   182.7610   182.8160 c3         1 UCX      -0.091100
     76 C20        188.7870   181.6460   182.2600 c3         1 UCX      -0.091100
     77 O3         189.8180   184.3780   186.5390 o          1 UCX      -0.451000
     78 O4         192.8600   185.3300   186.6640 o          1 UCX      -0.609100
@<TRIPOS>BOND
     1     1    13 1   
     2     1    33 2   
     3     2     3 1   
     4     2    29 1   
     5     2    37 1   
     6     3    17 2   
     7     3    18 1   
     8     4     7 1   
     9     4    33 1   
    10     4    38 1   
    11     4    39 1   
    12     5     6 1   
    13     5    15 1   
    14     5    21 1   
    15     5    40 1   
    16     6    16 1   
    17     6    20 1   
    18     6    41 1   
    19     7    10 1   
    20     7    36 1   
    21     7    42 1   
    22     8    19 1   
    23     8    24 1   
    24     8    26 1   
    25     8    43 1   
    26     9    26 1   
    27     9    27 1   
    28     9    44 1   
    29     9    45 1   
    30    10    31 1   
    31    10    46 1   
    32    10    47 1   
    33    11    12 2   
    34    11    25 1   
    35    11    32 1   
    36    12    31 1   
    37    12    54 1   
    38    13    14 2   
    39    13    28 1   
    40    14    23 1   
    41    14    55 1   
    42    15    34 1   
    43    15    56 1   
    44    15    57 1   
    45    16    58 1   
    46    16    75 1   
    47    16    76 1   
    48    18    21 2   
    49    18    59 1   
    50    19    27 1   
    51    19    28 1   
    52    20    24 1   
    53    21    60 1   
    54    22    31 1   
    55    22    61 1   
    56    23    33 1   
    57    24    77 2   
    58    25    30 2   
    59    25    62 1   
    60    26    63 1   
    61    26    64 1   
    62    27    65 1   
    63    27    66 1   
    64    28    78 2   
    65    29    30 1   
    66    29    67 1   
    67    29    68 1   
    68    30    69 1   
    69    31    70 1   
    70    32    71 1   
    71    32    72 1   
    72    32    73 1   
    73    34    35 3   
    74    35    74 1   
    75    48    75 1   
    76    49    75 1   
    77    50    75 1   
    78    51    76 1   
    79    52    76 1   
    80    53    76 1   
@<TRIPOS>SUBSTRUCTURE
     1 UCX         1 TEMP              0 ****  ****    0 ROOT
