@<TRIPOS>MOLECULE
UCY
   28    28     1     0     0
SMALL
abcg2


@<TRIPOS>ATOM
      1 C10         54.1220    26.0600    21.7330 c3         1 UCY      -0.457100
      2 P09         55.0380    25.9760    23.2750 p5         1 UCY       1.132800
      3 O12         54.2260    25.9380    24.5260 o          1 UCY      -0.544000
      4 C02         58.3360    24.7670    23.8220 c5         1 UCY      -0.080000
      5 C03         58.5780    25.9540    24.7530 c3         1 UCY      -0.081600
      6 C04         59.2290    23.5580    24.2160 c5         1 UCY      -0.072400
      7 C05         58.2900    22.4660    24.7350 c5         1 UCY      -0.083400
      8 C06         57.0150    22.7000    23.9370 c5         1 UCY      -0.082400
      9 C07         56.8910    24.2130    23.9930 c5         1 UCY       0.218300
     10 O08         55.9610    24.6780    23.0110 os         1 UCY      -0.590400
     11 H1          53.5090    26.9600    21.7300 hc         1 UCY       0.083700
     12 H2          54.7990    26.0960    20.8800 hc         1 UCY       0.083700
     13 H3          53.4690    25.1930    21.6360 hc         1 UCY       0.083700
     14 H5          59.6810    25.4320    22.2790 hc         1 UCY       0.036867
     15 H6          58.4090    24.3810    21.6720 hc         1 UCY       0.036867
     16 H7          58.0530    26.0620    22.0790 hc         1 UCY       0.036867
     17 H8          58.4140    25.6800    25.7970 hc         1 UCY       0.036867
     18 H9          59.6050    26.3130    24.6620 hc         1 UCY       0.036867
     19 H10         57.9180    26.7930    24.5220 hc         1 UCY       0.036867
     20 H11         59.7580    23.1890    23.3340 hc         1 UCY       0.047200
     21 H12         59.9930    23.8330    24.9450 hc         1 UCY       0.047200
     22 H13         58.0910    22.6000    25.8020 hc         1 UCY       0.048200
     23 H14         58.6970    21.4630    24.6080 hc         1 UCY       0.048200
     24 H15         56.1390    22.1910    24.3400 hc         1 UCY       0.059200
     25 H16         57.1480    22.3700    22.9010 hc         1 UCY       0.059200
     26 H17         56.5250    24.4850    24.9910 h1         1 UCY       0.051700
     27 H18         55.9280    27.0700    23.2330 hp         1 UCY      -0.111400
     28 C01         58.6230    25.1820    22.3810 c3         1 UCY      -0.081600
@<TRIPOS>BOND
     1     1     2 1   
     2     1    11 1   
     3     1    12 1   
     4     1    13 1   
     5     2     3 2   
     6     2    10 1   
     7     2    27 1   
     8     4     5 1   
     9     4     6 1   
    10     4     9 1   
    11     4    28 1   
    12     5    17 1   
    13     5    18 1   
    14     5    19 1   
    15     6     7 1   
    16     6    20 1   
    17     6    21 1   
    18     7     8 1   
    19     7    22 1   
    20     7    23 1   
    21     8     9 1   
    22     8    24 1   
    23     8    25 1   
    24     9    10 1   
    25     9    26 1   
    26    14    28 1   
    27    15    28 1   
    28    16    28 1   
@<TRIPOS>SUBSTRUCTURE
     1 UCY         1 TEMP              0 ****  ****    0 ROOT
