@<TRIPOS>MOLECULE
UCY
   28    28     1     0     0
SMALL
No Charge or Current Charge


@<TRIPOS>ATOM
      1 C10         54.2000    26.2240    21.9010 c3         1 UCY      -0.457100
      2 P09         55.1910    26.0820    23.4310 p5         1 UCY       1.132800
      3 O12         54.3950    26.2910    24.6760 o          1 UCY      -0.544000
      4 C02         58.2220    24.7620    23.8530 c5         1 UCY      -0.080000
      5 C03         58.4540    26.2030    24.3900 c3         1 UCY      -0.081600
      6 C04         59.0680    23.7430    24.6760 c5         1 UCY      -0.072400
      7 C05         58.5020    22.3580    24.2500 c5         1 UCY      -0.083400
      8 C06         56.9890    22.6260    23.9730 c5         1 UCY      -0.082400
      9 C07         56.8070    24.1580    24.1910 c5         1 UCY       0.218300
     10 O08         55.8010    24.5930    23.2470 os         1 UCY      -0.590400
     11 H1          53.7730    27.2300    21.8410 hc         1 UCY       0.083700
     12 H2          54.8500    26.0430    21.0390 hc         1 UCY       0.083700
     13 H3          53.3980    25.4790    21.9240 hc         1 UCY       0.083700
     14 H5          59.6370    25.0370    22.1820 hc         1 UCY       0.036867
     15 H6          58.4320    23.7880    21.8600 hc         1 UCY       0.036867
     16 H7          57.9770    25.4880    21.7780 hc         1 UCY       0.036867
     17 H8          58.1120    26.3030    25.4280 hc         1 UCY       0.036867
     18 H9          59.5210    26.4590    24.3720 hc         1 UCY       0.036867
     19 H10         57.9370    26.9610    23.7920 hc         1 UCY       0.036867
     20 H11         60.1420    23.8260    24.4720 hc         1 UCY       0.047200
     21 H12         58.9420    23.8960    25.7560 hc         1 UCY       0.047200
     22 H13         58.6510    21.6040    25.0310 hc         1 UCY       0.048200
     23 H14         59.0050    21.9820    23.3510 hc         1 UCY       0.048200
     24 H15         56.3450    22.0550    24.6500 hc         1 UCY       0.059200
     25 H16         56.7220    22.3240    22.9530 hc         1 UCY       0.059200
     26 H17         56.4960    24.3790    25.2230 h1         1 UCY       0.051700
     27 H18         56.2930    26.9480    23.2190 hp         1 UCY      -0.111400
     28 C01         58.5850    24.7640    22.3340 c3         1 UCY      -0.081600
@<TRIPOS>BOND
     1     1     2 1   
     2     1    11 1   
     3     1    12 1   
     4     1    13 1   
     5     2     3 2   
     6     2    10 1   
     7     2    27 1   
     8     4     5 1   
     9     4     6 1   
    10     4     9 1   
    11     4    28 1   
    12     5    17 1   
    13     5    18 1   
    14     5    19 1   
    15     6     7 1   
    16     6    20 1   
    17     6    21 1   
    18     7     8 1   
    19     7    22 1   
    20     7    23 1   
    21     8     9 1   
    22     8    24 1   
    23     8    25 1   
    24     9    10 1   
    25     9    26 1   
    26    14    28 1   
    27    15    28 1   
    28    16    28 1   
@<TRIPOS>SUBSTRUCTURE
     1 UCY         1 TEMP              0 ****  ****    0 ROOT
