@<TRIPOS>MOLECULE
UCZ
   38    39     1     0     0
SMALL
bcc


@<TRIPOS>ATOM
      1 C01         -1.2510     1.9200     1.7650 c3         1 UCZ      -0.084433
      2 C02         -1.6580     2.1010     0.3030 c3         1 UCZ      -0.033000
      3 C03         -3.1880     2.0920     0.2040 c3         1 UCZ      -0.084433
      4 C04         -1.1520     3.4680    -0.1750 c3         1 UCZ      -0.084433
      5 C05         -0.9750     1.0210    -0.5700 c3         1 UCZ       0.203300
      6 C06         -1.1270    -0.4110    -0.1090 c2         1 UCZ      -0.028300
      7 C07         -0.1390    -1.2750     0.1470 ce         1 UCZ      -0.106200
      8 C08          1.3120    -1.0430     0.1460 ca         1 UCZ      -0.061800
      9 C09          1.9290     0.0460     0.7590 ca         1 UCZ      -0.107500
     10 C10          3.3060     0.2020     0.7270 ca         1 UCZ      -0.120500
     11 C11          4.0800    -0.7460     0.0780 ca         1 UCZ       0.035400
     12 C12          3.4980    -1.8530    -0.5210 ca         1 UCZ      -0.120500
     13 C13          2.1220    -1.9980    -0.4730 ca         1 UCZ      -0.107500
     14 C16         -3.0150    -1.4610     1.0950 cc         1 UCZ       0.410400
     15 C18         -4.3680    -1.5260    -0.4850 cd         1 UCZ       0.509900
     16 N15         -2.4450    -0.9300     0.0030 na         1 UCZ       0.004400
     17 N17         -4.2380    -1.8460     0.8220 nd         1 UCZ      -0.696000
     18 N19         -3.3080    -0.9710    -1.0200 nc         1 UCZ      -0.507800
     19 O20         -1.4430     1.1600    -1.8910 oh         1 UCZ      -0.570800
     20 CL1          5.8000    -0.5570     0.0300 cl         1 UCZ      -0.101400
     21 H013        -1.5620     0.9560     2.1720 hc         1 UCZ       0.037922
     22 H011        -0.1720     2.0080     1.9030 hc         1 UCZ       0.037922
     23 H012        -1.7130     2.6960     2.3790 hc         1 UCZ       0.037922
     24 H032        -3.5810     2.9730     0.7150 hc         1 UCZ       0.037922
     25 H033        -3.5320     2.1290    -0.8280 hc         1 UCZ       0.037922
     26 H031        -3.6420     1.2250     0.6840 hc         1 UCZ       0.037922
     27 H043        -0.0650     3.5380    -0.1030 hc         1 UCZ       0.037922
     28 H041        -1.4360     3.6670    -1.2090 hc         1 UCZ       0.037922
     29 H042        -1.5760     4.2610     0.4430 hc         1 UCZ       0.037922
     30 H051         0.1020     1.2340    -0.5330 h1         1 UCZ       0.041700
     31 H071        -0.4260    -2.3060     0.3320 ha         1 UCZ       0.143000
     32 H091         1.3410     0.7740     1.2980 ha         1 UCZ       0.140500
     33 H101         3.7660     1.0530     1.2110 ha         1 UCZ       0.151500
     34 H121         4.1070    -2.5980    -1.0150 ha         1 UCZ       0.151500
     35 H131         1.6700    -2.8670    -0.9350 ha         1 UCZ       0.140500
     36 H181        -5.2640    -1.7110    -1.0570 h5         1 UCZ       0.065100
     37 H201        -0.9550     0.5530    -2.4560 ho         1 UCZ       0.411000
     38 H161        -2.5100    -1.5300     2.0470 h5         1 UCZ       0.065100
@<TRIPOS>BOND
     1     1     2 1   
     2     1    21 1   
     3     1    22 1   
     4     1    23 1   
     5     2     3 1   
     6     2     4 1   
     7     2     5 1   
     8     3    24 1   
     9     3    25 1   
    10     3    26 1   
    11     4    27 1   
    12     4    28 1   
    13     4    29 1   
    14     5     6 1   
    15     5    19 1   
    16     5    30 1   
    17     6     7 2   
    18     6    16 1   
    19     7     8 1   
    20     7    31 1   
    21     8     9 ar  
    22     8    13 ar  
    23     9    10 ar  
    24     9    32 1   
    25    10    11 ar  
    26    10    33 1   
    27    11    12 ar  
    28    11    20 1   
    29    12    13 ar  
    30    12    34 1   
    31    13    35 1   
    32    14    16 1   
    33    14    17 2   
    34    14    38 1   
    35    15    17 1   
    36    15    18 2   
    37    15    36 1   
    38    16    18 1   
    39    19    37 1   
@<TRIPOS>SUBSTRUCTURE
     1 UCZ         1 TEMP              0 ****  ****    0 ROOT
