@<TRIPOS>MOLECULE
UCZ
   38    39     1     0     0
SMALL
No Charge or Current Charge


@<TRIPOS>ATOM
      1 C01         -0.5720     2.0260     1.2720 c3         1 UCZ      -0.084433
      2 C02         -1.3700     1.9970    -0.0610 c3         1 UCZ      -0.033000
      3 C03         -2.8850     2.1240     0.2680 c3         1 UCZ      -0.084433
      4 C04         -0.9430     3.2370    -0.8980 c3         1 UCZ      -0.084433
      5 C05         -1.0260     0.6800    -0.8590 c3         1 UCZ       0.226500
      6 C06         -1.2450    -0.6400    -0.0840 c2         1 UCZ      -0.028300
      7 C07         -0.2350    -1.3250     0.5140 ce         1 UCZ      -0.156200
      8 C08          1.2020    -0.9440     0.5120 ca         1 UCZ      -0.061800
      9 C09          1.8450    -0.6490     1.7290 ca         1 UCZ      -0.089500
     10 C10          3.2050    -0.2930     1.7420 ca         1 UCZ      -0.102500
     11 C11          3.9280    -0.2410     0.5390 ca         1 UCZ       0.127000
     12 C12          3.2960    -0.5500    -0.6770 ca         1 UCZ      -0.102500
     13 C13          1.9350    -0.9060    -0.6890 ca         1 UCZ      -0.089500
     14 C16         -3.1530    -1.8660     1.0380 cc         1 UCZ       0.410400
     15 C18         -4.6670    -1.5670    -0.4450 cd         1 UCZ       0.509900
     16 N15         -2.6300    -1.1220    -0.0010 na         1 UCZ       0.004400
     17 N17         -4.4200    -2.1490     0.7840 nd         1 UCZ      -0.696000
     18 N19         -3.6230    -0.9380    -0.9660 nc         1 UCZ      -0.507800
     19 O20         -1.7070     0.6440    -2.1190 oh         1 UCZ      -0.633000
     20 Cl1          5.6290     0.2050     0.5550 cl         1 UCZ      -0.193000
     21 H013        -0.8620     1.1990     1.9300 hc         1 UCZ       0.037922
     22 H011         0.5060     1.9500     1.0850 hc         1 UCZ       0.037922
     23 H012        -0.7520     2.9610     1.8170 hc         1 UCZ       0.037922
     24 H032        -3.0970     3.0850     0.7530 hc         1 UCZ       0.037922
     25 H033        -3.4980     2.0700    -0.6400 hc         1 UCZ       0.037922
     26 H031        -3.2150     1.3370     0.9550 hc         1 UCZ       0.037922
     27 H043         0.1210     3.1860    -1.1590 hc         1 UCZ       0.037922
     28 H041        -1.5170     3.3080    -1.8290 hc         1 UCZ       0.037922
     29 H042        -1.1060     4.1660    -0.3370 hc         1 UCZ       0.037922
     30 H051         0.0440     0.7580    -1.0810 h1         1 UCZ       0.041700
     31 H071        -0.4370    -2.2410     1.0710 ha         1 UCZ       0.193000
     32 H091         1.2880    -0.6880     2.6620 ha         1 UCZ       0.122500
     33 H101         3.6980    -0.0580     2.6810 ha         1 UCZ       0.133500
     34 H121         3.8590    -0.5160    -1.6060 ha         1 UCZ       0.133500
     35 H131         1.4510    -1.1520    -1.6320 ha         1 UCZ       0.122500
     36 H181        -5.6370    -1.6310    -0.9260 h5         1 UCZ       0.065100
     37 H201        -2.5320     0.1320    -1.9300 ho         1 UCZ       0.450000
     38 H161        -2.5870    -2.1420     1.9190 h5         1 UCZ       0.065100
@<TRIPOS>BOND
     1     1     2 1   
     2     1    21 1   
     3     1    22 1   
     4     1    23 1   
     5     2     3 1   
     6     2     4 1   
     7     2     5 1   
     8     3    24 1   
     9     3    25 1   
    10     3    26 1   
    11     4    27 1   
    12     4    28 1   
    13     4    29 1   
    14     5     6 1   
    15     5    19 1   
    16     5    30 1   
    17     6     7 2   
    18     6    16 1   
    19     7     8 1   
    20     7    31 1   
    21     8     9 ar  
    22     8    13 ar  
    23     9    10 ar  
    24     9    32 1   
    25    10    11 ar  
    26    10    33 1   
    27    11    12 ar  
    28    11    20 1   
    29    12    13 ar  
    30    12    34 1   
    31    13    35 1   
    32    14    16 1   
    33    14    17 2   
    34    14    38 1   
    35    15    17 1   
    36    15    18 2   
    37    15    36 1   
    38    16    18 1   
    39    19    37 1   
@<TRIPOS>SUBSTRUCTURE
     1 UCZ         1 TEMP              0 ****  ****    0 ROOT
