@<TRIPOS>MOLECULE
UD1
   64    66     1     0     0
SMALL
bcc


@<TRIPOS>ATOM
      1 C1          -0.3370    -0.7200    -4.4210 c6         1 UD1       0.375900
      2 C2          -0.5860     0.7760    -4.6670 c6         1 UD1       0.077700
      3 C3          -1.9680     1.1770    -4.1770 c6         1 UD1       0.137100
      4 C4          -3.0140     0.2490    -4.7840 c6         1 UD1       0.075100
      5 C5          -2.6630    -1.2100    -4.4730 c6         1 UD1       0.132100
      6 C6          -3.6180    -2.1700    -5.1490 c3         1 UD1       0.148400
      7 C7           1.6540     1.7680    -4.5650 c          1 UD1       0.700100
      8 C8           2.6490     2.4170    -3.6400 c3         1 UD1      -0.181100
      9 N2           0.4320     1.5730    -4.0320 ns         1 UD1      -0.538900
     10 O1          -0.1950    -0.9310    -3.0470 os         1 UD1      -0.568200
     11 O3          -2.1930     2.5160    -4.5350 oh         1 UD1      -0.602800
     12 O4          -4.2610     0.6160    -4.2340 oh         1 UD1      -0.608800
     13 O5          -1.3610    -1.4990    -4.9510 os         1 UD1      -0.403600
     14 O6          -3.3100    -3.4840    -4.7520 oh         1 UD1      -0.543800
     15 O7           1.9380     1.4420    -5.7100 o          1 UD1      -0.652100
     16 N1          -0.0170     1.5920     4.6780 n          1 UD1      -0.373000
     17 C9          -1.0590     0.7200     4.4170 c          1 UD1       0.821500
     18 N3          -2.3090     1.2680     4.5470 ns         1 UD1      -0.606500
     19 C10         -2.6480     2.5640     4.9030 c          1 UD1       0.740700
     20 C11         -1.5030     3.4050     5.1460 cc         1 UD1      -0.366200
     21 C12         -0.2700     2.8930     5.0190 cd         1 UD1       0.082600
     22 O2          -0.8990    -0.4390     4.1030 o          1 UD1      -0.572500
     23 O8          -3.8150     2.9000     4.9820 o          1 UD1      -0.640500
     24 C1B          1.3670     1.1590     4.5560 c5         1 UD1       0.325500
     25 C2B          1.7940    -0.0070     5.4470 c5         1 UD1       0.046100
     26 O9           2.0870     0.4700     6.7300 oh         1 UD1      -0.605800
     27 C3B          3.0130    -0.5180     4.6710 c5         1 UD1       0.081100
     28 C4B          2.5790    -0.3040     3.2250 c5         1 UD1       0.138100
     29 O4B          1.6510     0.7870     3.2440 os         1 UD1      -0.357600
     30 O3B          4.1400     0.2830     4.9240 oh         1 UD1      -0.589800
     31 C5B          1.9570    -1.5420     2.6130 c3         1 UD1       0.196400
     32 O5B          1.5280    -1.2320     1.3040 os         1 UD1      -0.536200
     33 PA           1.4190    -2.4870     0.2470 p5         1 UD1       1.447800
     34 O1A          0.4240    -3.4830     0.7530 o          1 UD1      -0.846000
     35 O2A          2.7920    -2.9240    -0.1580 o          1 UD1      -0.846000
     36 O3A          0.7330    -1.5890    -0.9450 os         1 UD1      -0.687800
     37 PB           1.1590    -1.7320    -2.5230 p5         1 UD1       1.457800
     38 O1B          1.0920    -3.1590    -2.9630 o          1 UD1      -0.842500
     39 O2B          2.3640    -0.8990    -2.8240 o          1 UD1      -0.842500
     40 H1           0.5640    -1.0170    -4.9700 h2         1 UD1       0.091700
     41 H2          -0.5370     0.9480    -5.7460 h1         1 UD1       0.065700
     42 H3          -2.0090     1.0550    -3.0820 h1         1 UD1       0.077700
     43 H4          -3.0090     0.3860    -5.8750 h1         1 UD1       0.029700
     44 H5          -2.7210    -1.3600    -3.3850 h1         1 UD1       0.099700
     45 H6'1        -4.6400    -1.8960    -4.8640 h1         1 UD1      -0.003300
     46 H6'2        -3.5410    -2.0420    -6.2380 h1         1 UD1      -0.003300
     47 H8'1         3.3680     3.0040    -4.2070 hc         1 UD1       0.060700
     48 H8'2         2.1780     3.0550    -2.8930 hc         1 UD1       0.060700
     49 H8'3         3.1850     1.6270    -3.1140 hc         1 UD1       0.060700
     50 HN2          0.3250     1.7440    -3.0450 hn         1 UD1       0.324500
     51 HO3         -3.0760     2.7540    -4.2320 ho         1 UD1       0.394000
     52 HO4         -4.9520     0.4560    -4.8830 ho         1 UD1       0.388000
     53 HO6         -3.9790    -4.0680    -5.1210 ho         1 UD1       0.374000
     54 HN3         -3.0750     0.6310     4.3610 hn         1 UD1       0.340500
     55 H7          -1.6440     4.4390     5.4180 ha         1 UD1       0.157000
     56 H6           0.6060     3.5040     5.1840 h4         1 UD1       0.148000
     57 H1B          1.9560     2.0380     4.8470 h2         1 UD1       0.054700
     58 H2B          1.0300    -0.7860     5.4720 h1         1 UD1       0.088700
     59 HO2          1.9860    -0.2510     7.3590 ho         1 UD1       0.406000
     60 H3B          3.2150    -1.5750     4.8850 h1         1 UD1       0.060700
     61 H4B          3.4390    -0.0100     2.6150 h1         1 UD1       0.103700
     62 HO3A         4.1990     0.4110     5.8780 ho         1 UD1       0.398000
     63 H5'1         1.1220    -1.9040     3.2180 h1         1 UD1       0.023700
     64 H5'2         2.7290    -2.3210     2.6130 h1         1 UD1       0.023700
@<TRIPOS>BOND
     1     1     2 1   
     2     1    10 1   
     3     1    13 1   
     4     1    40 1   
     5     2     3 1   
     6     2     9 1   
     7     2    41 1   
     8     3     4 1   
     9     3    11 1   
    10     3    42 1   
    11     4     5 1   
    12     4    12 1   
    13     4    43 1   
    14     5     6 1   
    15     5    13 1   
    16     5    44 1   
    17     6    14 1   
    18     6    45 1   
    19     6    46 1   
    20     7     8 1   
    21     7     9 1   
    22     7    15 2   
    23     8    47 1   
    24     8    48 1   
    25     8    49 1   
    26     9    50 1   
    27    10    37 1   
    28    11    51 1   
    29    12    52 1   
    30    14    53 1   
    31    16    17 1   
    32    16    21 1   
    33    16    24 1   
    34    17    18 1   
    35    17    22 2   
    36    18    19 1   
    37    18    54 1   
    38    19    20 1   
    39    19    23 2   
    40    20    21 2   
    41    20    55 1   
    42    21    56 1   
    43    24    25 1   
    44    24    29 1   
    45    24    57 1   
    46    25    26 1   
    47    25    27 1   
    48    25    58 1   
    49    26    59 1   
    50    27    28 1   
    51    27    30 1   
    52    27    60 1   
    53    28    29 1   
    54    28    31 1   
    55    28    61 1   
    56    30    62 1   
    57    31    32 1   
    58    31    63 1   
    59    31    64 1   
    60    32    33 1   
    61    33    34 1   
    62    33    35 1   
    63    33    36 1   
    64    36    37 1   
    65    37    38 1   
    66    37    39 1   
@<TRIPOS>SUBSTRUCTURE
     1 UD1         1 TEMP              0 ****  ****    0 ROOT
