@<TRIPOS>MOLECULE
UD1
   64    66     1     0     0
SMALL
No Charge or Current Charge


@<TRIPOS>ATOM
      1 C1          -0.6510    -0.3880    -4.5110 c6         1 UD1       0.422300
      2 C2          -1.3750     0.2060    -3.2450 c6         1 UD1       0.077700
      3 C3          -1.8100    -0.9810    -2.3380 c6         1 UD1       0.160300
      4 C4          -2.7610    -1.9260    -3.1320 c6         1 UD1       0.098300
      5 C5          -2.0560    -2.3900    -4.4500 c6         1 UD1       0.155300
      6 C6          -3.0020    -3.2300    -5.3720 c3         1 UD1       0.171600
      7 C7          -0.5170     2.5600    -2.8460 c          1 UD1       0.633100
      8 C8           0.4110     3.3830    -1.9630 c3         1 UD1      -0.181100
      9 N2          -0.6040     1.2340    -2.5130 ns         1 UD1      -0.471900
     10 O1           0.5180    -1.1870    -4.2560 os         1 UD1      -0.591400
     11 O3          -2.4770    -0.5260    -1.1470 oh         1 UD1      -0.665000
     12 O4          -3.1550    -3.0390    -2.2980 oh         1 UD1      -0.731000
     13 O5          -1.5920    -1.2350    -5.2090 os         1 UD1      -0.450000
     14 O6          -2.3930    -3.6210    -6.6140 oh         1 UD1      -0.666000
     15 O7          -1.1480     3.0440    -3.7760 o          1 UD1      -0.652100
     16 N1           1.2040     1.9120     4.6590 n          1 UD1      -0.306000
     17 C9           0.6290     2.9210     3.8510 c          1 UD1       0.612000
     18 N3           0.4310     4.1270     4.4540 ns         1 UD1      -0.472500
     19 C10          0.7100     4.4860     5.7300 c          1 UD1       0.598200
     20 C11          1.2910     3.4090     6.5220 cc         1 UD1      -0.416200
     21 C12          1.5290     2.1630     5.9910 cd         1 UD1       0.032600
     22 O2           0.2830     2.7610     2.6930 o          1 UD1      -0.497000
     23 O8           0.4870     5.6050     6.1560 o          1 UD1      -0.565000
     24 C1B          1.5500     0.5840     4.0820 c5         1 UD1       0.348700
     25 C2B          0.2400    -0.2560     3.9350 c5         1 UD1       0.069300
     26 O9          -0.2660    -0.8200     5.1680 oh         1 UD1      -0.728000
     27 C3B          0.7940    -1.3630     2.9960 c5         1 UD1       0.104300
     28 C4B          1.6900    -0.5210     2.0120 c5         1 UD1       0.161300
     29 O4B          2.1260     0.6500     2.7650 os         1 UD1      -0.404000
     30 O3B          1.5390    -2.3110     3.7700 oh         1 UD1      -0.712000
     31 C5B          0.9170    -0.0580     0.7400 c3         1 UD1       0.219600
     32 O5B          1.7920     0.6260    -0.1730 os         1 UD1      -0.559400
     33 PA           2.7020    -0.1810    -1.2320 p5         1 UD1       1.447800
     34 O1A          3.2840    -1.4150    -0.6290 o          1 UD1      -0.846000
     35 O2A          3.7480     0.7350    -1.7710 o          1 UD1      -0.846000
     36 O3A          1.5140    -0.5010    -2.2120 os         1 UD1      -0.687800
     37 PB           1.8820    -0.5130    -3.7400 p5         1 UD1       1.457800
     38 O1B          3.0200    -1.4230    -4.0640 o          1 UD1      -0.842500
     39 O2B          2.0290     0.8440    -4.3420 o          1 UD1      -0.842500
     40 H1          -0.3800     0.4470    -5.1770 h2         1 UD1       0.091700
     41 H2          -2.2920     0.6960    -3.6020 h1         1 UD1       0.065700
     42 H3          -0.9130    -1.5540    -2.0590 h1         1 UD1       0.077700
     43 H4          -3.6540    -1.3490    -3.4140 h1         1 UD1       0.029700
     44 H5          -1.1930    -3.0230    -4.1950 h1         1 UD1       0.099700
     45 H6'1        -3.3180    -4.1270    -4.8240 h1         1 UD1      -0.003300
     46 H6'2        -3.9040    -2.6360    -5.5740 h1         1 UD1      -0.003300
     47 H8'1         0.4130     4.4460    -2.2280 hc         1 UD1       0.060700
     48 H8'2         0.1450     3.2220    -0.9120 hc         1 UD1       0.060700
     49 H8'3         1.4180     2.9550    -2.0160 hc         1 UD1       0.060700
     50 HN2         -0.0010     0.9180    -1.7600 hn         1 UD1       0.324500
     51 HO3         -2.9950    -1.3080    -0.8480 ho         1 UD1       0.433000
     52 HO4         -3.9690    -3.4320    -2.6900 ho         1 UD1       0.487000
     53 HO6         -3.0880    -4.0770    -7.1410 ho         1 UD1       0.473000
     54 HN3          0.0200     4.8430     3.8770 hn         1 UD1       0.340500
     55 H7           1.5300     3.6540     7.5510 ha         1 UD1       0.207000
     56 H6           1.9670     1.3260     6.5310 h4         1 UD1       0.198000
     57 H1B          2.2560     0.0920     4.7630 h2         1 UD1       0.054700
     58 H2B         -0.5400     0.3240     3.4190 h1         1 UD1       0.088700
     59 HO2         -0.7380    -0.1010     5.6540 ho         1 UD1       0.505000
     60 H3B         -0.0210    -1.8720     2.4610 h1         1 UD1       0.060700
     61 H4B          2.5690    -1.1020     1.7130 h1         1 UD1       0.103700
     62 HO3A         1.0730    -2.3050     4.6440 ho         1 UD1       0.497000
     63 H5'1         0.0910     0.6020     1.0350 h1         1 UD1       0.023700
     64 H5'2         0.4740    -0.9390     0.2570 h1         1 UD1       0.023700
@<TRIPOS>BOND
     1     1     2 1   
     2     1    10 1   
     3     1    13 1   
     4     1    40 1   
     5     2     3 1   
     6     2     9 1   
     7     2    41 1   
     8     3     4 1   
     9     3    11 1   
    10     3    42 1   
    11     4     5 1   
    12     4    12 1   
    13     4    43 1   
    14     5     6 1   
    15     5    13 1   
    16     5    44 1   
    17     6    14 1   
    18     6    45 1   
    19     6    46 1   
    20     7     8 1   
    21     7     9 1   
    22     7    15 2   
    23     8    47 1   
    24     8    48 1   
    25     8    49 1   
    26     9    50 1   
    27    10    37 1   
    28    11    51 1   
    29    12    52 1   
    30    14    53 1   
    31    16    17 1   
    32    16    21 1   
    33    16    24 1   
    34    17    18 1   
    35    17    22 2   
    36    18    19 1   
    37    18    54 1   
    38    19    20 1   
    39    19    23 2   
    40    20    21 2   
    41    20    55 1   
    42    21    56 1   
    43    24    25 1   
    44    24    29 1   
    45    24    57 1   
    46    25    26 1   
    47    25    27 1   
    48    25    58 1   
    49    26    59 1   
    50    27    28 1   
    51    27    30 1   
    52    27    60 1   
    53    28    29 1   
    54    28    31 1   
    55    28    61 1   
    56    30    62 1   
    57    31    32 1   
    58    31    63 1   
    59    31    64 1   
    60    32    33 1   
    61    33    34 1   
    62    33    35 1   
    63    33    36 1   
    64    36    37 1   
    65    37    38 1   
    66    37    39 1   
@<TRIPOS>SUBSTRUCTURE
     1 UD1         1 TEMP              0 ****  ****    0 ROOT
