@<TRIPOS>MOLECULE
UD2
   64    66     1     0     0
SMALL
bcc


@<TRIPOS>ATOM
      1 C1           2.9950     0.6960    -0.3470 c6         1 UD2       0.385900
      2 C2           2.4090     0.5270     1.0680 c6         1 UD2       0.074700
      3 C3           1.2860     1.5340     1.2700 c6         1 UD2       0.145100
      4 C4           1.8100     2.9460     1.0060 c6         1 UD2       0.082100
      5 C5           2.4130     2.9950    -0.3990 c6         1 UD2       0.129100
      6 C6           3.0390     4.3400    -0.6990 c3         1 UD2       0.144400
      7 C8           2.1470    -3.2170     1.3440 c3         1 UD2      -0.178100
      8 N2           1.9330    -0.8180     1.2640 ns         1 UD2      -0.548900
      9 O1           2.0420     0.3590    -1.3170 os         1 UD2      -0.609200
     10 O3           0.7550     1.3770     2.5570 oh         1 UD2      -0.585800
     11 O4           2.7430     3.2720     2.0070 oh         1 UD2      -0.576800
     12 O5           3.4140     2.0060    -0.5590 os         1 UD2      -0.402600
     13 O6           3.4010     4.3860    -2.0570 oh         1 UD2      -0.559800
     14 O7           3.9570    -1.7010     1.7370 o          1 UD2      -0.659100
     15 N1          -2.0470     0.9730     0.2040 n          1 UD2      -0.377000
     16 C9          -1.9280     2.2950     0.5750 c          1 UD2       0.829500
     17 N3          -1.7410     3.1670    -0.4620 ns         1 UD2      -0.611500
     18 C10         -1.6330     2.8770    -1.8190 c          1 UD2       0.733700
     19 C11         -1.7290     1.4700    -2.1060 cc         1 UD2      -0.313200
     20 C12         -1.9330     0.5970    -1.1080 cd         1 UD2       0.061600
     21 O2          -1.9680     2.6770     1.7310 o          1 UD2      -0.691500
     22 O8          -1.4670     3.7720    -2.6240 o          1 UD2      -0.634500
     23 C1B         -2.2420    -0.0380     1.2350 c5         1 UD2       0.322500
     24 C2B         -3.6290    -0.6720     1.2230 c5         1 UD2       0.043100
     25 O9          -4.5370     0.1520     1.8880 oh         1 UD2      -0.582800
     26 C3B         -3.3340    -2.0070     1.9110 c5         1 UD2       0.078100
     27 C4B         -1.9760    -2.3500     1.3110 c5         1 UD2       0.117100
     28 O4B         -1.3490    -1.0920     1.0270 os         1 UD2      -0.369600
     29 O3B         -3.1890    -1.8360     3.2970 oh         1 UD2      -0.586800
     30 C5B         -2.1150    -3.1970     0.0590 c3         1 UD2       0.204400
     31 O5B         -0.8680    -3.4900    -0.5190 os         1 UD2      -0.563200
     32 PA          -0.3550    -2.8210    -1.9350 p5         1 UD2       1.466800
     33 O1A          0.4400    -3.8740    -2.6340 o          1 UD2      -0.841500
     34 O2A         -1.5200    -2.1500    -2.6050 o          1 UD2      -0.841500
     35 O3A          0.6510    -1.6870    -1.3180 os         1 UD2      -0.725800
     36 PB           1.9710    -1.0970    -2.0940 p5         1 UD2       1.471800
     37 O1B          3.1800    -1.9040    -1.7340 o          1 UD2      -0.834500
     38 O2B          1.6230    -0.8080    -3.5170 o          1 UD2      -0.834500
     39 H1           3.8850     0.0700    -0.4440 h2         1 UD2       0.109700
     40 H2           3.2060     0.7240     1.7880 h1         1 UD2       0.082700
     41 H3           0.5290     1.3320     0.4990 h1         1 UD2       0.060700
     42 H4           0.9560     3.6390     1.0250 h1         1 UD2       0.011700
     43 H5           1.5960     2.8340    -1.1180 h1         1 UD2       0.083700
     44 H6'1         2.3010     5.1170    -0.4510 h1         1 UD2       0.002200
     45 H6'2         3.9050     4.4940    -0.0450 h1         1 UD2       0.002200
     46 H8'1         2.6370    -3.9210     2.0130 hc         1 UD2       0.062367
     47 H8'2         1.0760    -3.2240     1.5350 hc         1 UD2       0.062367
     48 H8'3         2.2920    -3.5510     0.3160 hc         1 UD2       0.062367
     49 HN2          0.9930    -1.0250     0.9550 hn         1 UD2       0.347500
     50 HO3         -0.0160     1.9480     2.6420 ho         1 UD2       0.397000
     51 HO4          2.7550     4.2250     2.1280 ho         1 UD2       0.375000
     52 HO6          3.8760     5.2070    -2.2090 ho         1 UD2       0.376000
     53 HN3         -1.6900     4.1440    -0.1980 hn         1 UD2       0.315500
     54 H7          -1.6190     1.1170    -3.1190 ha         1 UD2       0.208000
     55 H6          -1.9860    -0.4620    -1.3280 h4         1 UD2       0.236000
     56 H1B         -2.0640     0.4530     2.1930 h2         1 UD2       0.103700
     57 H2B         -3.9400    -0.8640     0.1860 h1         1 UD2       0.070700
     58 HO2         -5.4310    -0.1020     1.6350 ho         1 UD2       0.398000
     59 H3B         -4.0910    -2.7680     1.6750 h1         1 UD2       0.042700
     60 H4B         -1.3550    -2.8820     2.0380 h1         1 UD2       0.093700
     61 HO3A        -3.9460    -1.3330     3.6170 ho         1 UD2       0.403000
     62 H5'1        -2.5850    -4.1400     0.3560 h1         1 UD2       0.019700
     63 H5'2        -2.7870    -2.7170    -0.6600 h1         1 UD2       0.019700
     64 C7           2.7700    -1.8520     1.4720 c          1 UD2       0.692100
@<TRIPOS>BOND
     1     1     2 1   
     2     1     9 1   
     3     1    12 1   
     4     1    39 1   
     5     2     3 1   
     6     2     8 1   
     7     2    40 1   
     8     3     4 1   
     9     3    10 1   
    10     3    41 1   
    11     4     5 1   
    12     4    11 1   
    13     4    42 1   
    14     5     6 1   
    15     5    12 1   
    16     5    43 1   
    17     6    13 1   
    18     6    44 1   
    19     6    45 1   
    20     7    46 1   
    21     7    47 1   
    22     7    48 1   
    23     7    64 1   
    24     8    49 1   
    25     8    64 1   
    26     9    36 1   
    27    10    50 1   
    28    11    51 1   
    29    13    52 1   
    30    14    64 2   
    31    15    16 1   
    32    15    20 1   
    33    15    23 1   
    34    16    17 1   
    35    16    21 2   
    36    17    18 1   
    37    17    53 1   
    38    18    19 1   
    39    18    22 2   
    40    19    20 2   
    41    19    54 1   
    42    20    55 1   
    43    23    24 1   
    44    23    28 1   
    45    23    56 1   
    46    24    25 1   
    47    24    26 1   
    48    24    57 1   
    49    25    58 1   
    50    26    27 1   
    51    26    29 1   
    52    26    59 1   
    53    27    28 1   
    54    27    30 1   
    55    27    60 1   
    56    29    61 1   
    57    30    31 1   
    58    30    62 1   
    59    30    63 1   
    60    31    32 1   
    61    32    33 1   
    62    32    34 1   
    63    32    35 1   
    64    35    36 1   
    65    36    37 1   
    66    36    38 1   
@<TRIPOS>SUBSTRUCTURE
     1 UD2         1 TEMP              0 ****  ****    0 ROOT
