@<TRIPOS>MOLECULE
UD2
   64    66     1     0     0
SMALL
No Charge or Current Charge


@<TRIPOS>ATOM
      1 C1           2.9390     0.5420    -0.4540 c6         1 UD2       0.432300
      2 C2           2.3530     0.3350     0.9890 c6         1 UD2       0.074700
      3 C3           1.2190     1.3740     1.2460 c6         1 UD2       0.168300
      4 C4           1.7110     2.8260     0.9840 c6         1 UD2       0.105300
      5 C5           2.2860     2.8900    -0.4660 c6         1 UD2       0.152300
      6 C6           2.8240     4.3080    -0.8500 c3         1 UD2       0.167600
      7 C8           1.9970    -3.4280     1.7950 c3         1 UD2      -0.178100
      8 N2           1.8960    -1.0480     1.2450 ns         1 UD2      -0.481900
      9 O1           2.0270     0.2330    -1.5190 os         1 UD2      -0.632400
     10 O3           0.7360     1.2910     2.5960 oh         1 UD2      -0.648000
     11 O4           2.6840     3.1880     1.9940 oh         1 UD2      -0.699000
     12 O5           3.3520     1.9170    -0.6260 os         1 UD2      -0.449000
     13 O6           3.3230     4.3830    -2.1970 oh         1 UD2      -0.682000
     14 O7           3.8660    -1.9150     1.9730 o          1 UD2      -0.659100
     15 N1          -2.1620     1.0860     0.1500 n          1 UD2      -0.310000
     16 C9          -2.7120     2.3320     0.4950 c          1 UD2       0.620000
     17 N3          -2.6120     3.3170    -0.4360 ns         1 UD2      -0.477500
     18 C10         -2.0590     3.2440    -1.6730 c          1 UD2       0.591200
     19 C11         -1.5340     1.9230    -1.9990 cc         1 UD2      -0.363200
     20 C12         -1.5940     0.8730    -1.1100 cd         1 UD2       0.011600
     21 O2          -3.2800     2.5300     1.5570 o          1 UD2      -0.616000
     22 O8          -2.0210     4.2010    -2.4240 o          1 UD2      -0.559000
     23 C1B         -2.1220     0.0460     1.2130 c5         1 UD2       0.345700
     24 C2B         -3.5230    -0.6480     1.2260 c5         1 UD2       0.066300
     25 O9          -4.5280     0.0670     1.9800 oh         1 UD2      -0.705000
     26 C3B         -3.1260    -1.9870     1.9050 c5         1 UD2       0.101300
     27 C4B         -1.7850    -2.2950     1.1540 c5         1 UD2       0.140300
     28 O4B         -1.1640    -1.0000     0.9280 os         1 UD2      -0.416000
     29 O3B         -2.9520    -1.8100     3.3170 oh         1 UD2      -0.709000
     30 C5B         -1.9990    -3.0190    -0.2030 c3         1 UD2       0.227600
     31 O5B         -0.7530    -3.5710    -0.6570 os         1 UD2      -0.586400
     32 PA           0.0090    -2.9880    -1.9540 p5         1 UD2       1.466800
     33 O1A          0.9410    -4.0440    -2.4470 o          1 UD2      -0.841500
     34 O2A         -0.9900    -2.5740    -2.9820 o          1 UD2      -0.841500
     35 O3A          0.7160    -1.7630    -1.2550 os         1 UD2      -0.725800
     36 PB           1.9520    -1.2660    -2.0990 p5         1 UD2       1.471800
     37 O1B          3.2070    -2.0050    -1.7800 o          1 UD2      -0.834500
     38 O2B          1.7040    -1.1670    -3.5670 o          1 UD2      -0.834500
     39 H1           3.8410    -0.0840    -0.5420 h2         1 UD2       0.109700
     40 H2           3.1660     0.5520     1.6960 h1         1 UD2       0.082700
     41 H3           0.4080     1.1600     0.5420 h1         1 UD2       0.060700
     42 H4           0.8470     3.5030     1.0440 h1         1 UD2       0.011700
     43 H5           1.4770     2.6540    -1.1740 h1         1 UD2       0.083700
     44 H6'1         2.0080     5.0310    -0.7200 h1         1 UD2       0.002200
     45 H6'2         3.6220     4.5850    -0.1490 h1         1 UD2       0.002200
     46 H8'1         2.6670    -4.2150     2.1580 hc         1 UD2       0.062367
     47 H8'2         1.1140    -3.3220     2.4330 hc         1 UD2       0.062367
     48 H8'3         1.5600    -3.6860     0.8250 hc         1 UD2       0.062367
     49 HN2          0.9460    -1.2880     0.9710 hn         1 UD2       0.347500
     50 HO3          1.3380     1.8850     3.0970 ho         1 UD2       0.436000
     51 HO4          2.8990     4.1400     1.8710 ho         1 UD2       0.474000
     52 HO6          3.7030     5.2840    -2.3110 ho         1 UD2       0.475000
     53 HN3         -3.0040     4.2080    -0.1770 hn         1 UD2       0.315500
     54 H7          -1.0900     1.8240    -2.9840 ha         1 UD2       0.258000
     55 H6          -1.2090    -0.1270    -1.3010 h4         1 UD2       0.286000
     56 H1B         -1.8840     0.5230     2.1730 h2         1 UD2       0.103700
     57 H2B         -3.8710    -0.8240     0.1980 h1         1 UD2       0.070700
     58 HO2         -4.3080     1.0350     1.9000 ho         1 UD2       0.497000
     59 H3B         -3.8790    -2.7650     1.7160 h1         1 UD2       0.042700
     60 H4B         -1.1260    -2.9160     1.7740 h1         1 UD2       0.093700
     61 HO3A        -3.6720    -1.1850     3.5760 ho         1 UD2       0.502000
     62 H5'1        -2.7220    -3.8320    -0.0580 h1         1 UD2       0.019700
     63 H5'2        -2.4320    -2.3180    -0.9270 h1         1 UD2       0.019700
     64 C7           2.6890    -2.0770     1.6810 c          1 UD2       0.625100
@<TRIPOS>BOND
     1     1     2 1   
     2     1     9 1   
     3     1    12 1   
     4     1    39 1   
     5     2     3 1   
     6     2     8 1   
     7     2    40 1   
     8     3     4 1   
     9     3    10 1   
    10     3    41 1   
    11     4     5 1   
    12     4    11 1   
    13     4    42 1   
    14     5     6 1   
    15     5    12 1   
    16     5    43 1   
    17     6    13 1   
    18     6    44 1   
    19     6    45 1   
    20     7    46 1   
    21     7    47 1   
    22     7    48 1   
    23     7    64 1   
    24     8    49 1   
    25     8    64 1   
    26     9    36 1   
    27    10    50 1   
    28    11    51 1   
    29    13    52 1   
    30    14    64 2   
    31    15    16 1   
    32    15    20 1   
    33    15    23 1   
    34    16    17 1   
    35    16    21 2   
    36    17    18 1   
    37    17    53 1   
    38    18    19 1   
    39    18    22 2   
    40    19    20 2   
    41    19    54 1   
    42    20    55 1   
    43    23    24 1   
    44    23    28 1   
    45    23    56 1   
    46    24    25 1   
    47    24    26 1   
    48    24    57 1   
    49    25    58 1   
    50    26    27 1   
    51    26    29 1   
    52    26    59 1   
    53    27    28 1   
    54    27    30 1   
    55    27    60 1   
    56    29    61 1   
    57    30    31 1   
    58    30    62 1   
    59    30    63 1   
    60    31    32 1   
    61    32    33 1   
    62    32    34 1   
    63    32    35 1   
    64    35    36 1   
    65    36    37 1   
    66    36    38 1   
@<TRIPOS>SUBSTRUCTURE
     1 UD2         1 TEMP              0 ****  ****    0 ROOT
