@<TRIPOS>MOLECULE
UD6
   65    67     1     0     0
SMALL
bcc


@<TRIPOS>ATOM
      1 N1          -5.2310    -0.7230    -0.3420 n          1 UD6      -0.375000
      2 C2          -4.9520    -0.7010     1.0140 c          1 UD6       0.823500
      3 O2          -4.3350     0.1880     1.5560 o          1 UD6      -0.567500
      4 N3          -5.4370    -1.7760     1.7140 ns         1 UD6      -0.604500
      5 C4          -6.1670    -2.8540     1.2390 c          1 UD6       0.740700
      6 O4          -6.5350    -3.7350     1.9940 o          1 UD6      -0.638500
      7 C5          -6.4100    -2.7960    -0.1810 cc         1 UD6      -0.365200
      8 C6          -5.9340    -1.7600    -0.8890 cd         1 UD6       0.080600
      9 PA           0.2370     1.8150     0.9510 p5         1 UD6       1.468800
     10 PB           2.2370    -0.0890     1.9460 p5         1 UD6       1.464800
     11 C1           4.3090    -0.7810     0.4630 c6         1 UD6       0.397900
     12 O1           2.9240    -0.5650     0.5240 os         1 UD6      -0.590200
     13 O1A          1.1220     2.4890    -0.0530 o          1 UD6      -0.859500
     14 C1B         -4.7400     0.3290    -1.2210 c5         1 UD6       0.327500
     15 O1B          2.9570     1.1150     2.4670 o          1 UD6      -0.847000
     16 C10          4.8750    -0.0200    -0.7420 c6         1 UD6      -0.068700
     17 O8          -6.4950     1.9390    -1.4390 oh         1 UD6      -0.605800
     18 O2A         -0.1810     2.5330     2.1950 o          1 UD6      -0.859500
     19 C2B         -5.2130     1.7480    -0.9090 c5         1 UD6       0.046100
     20 O2B          2.0180    -1.2850     2.8170 o          1 UD6      -0.847000
     21 C3           4.4010    -0.6900    -2.0300 c6         1 UD6       0.155100
     22 O3           4.9860    -0.0280    -3.1260 oh         1 UD6      -0.592800
     23 O3A          0.7800     0.3090     1.3150 os         1 UD6      -0.689800
     24 C3B         -4.1140     2.5620    -1.6010 c5         1 UD6       0.079100
     25 O3B         -4.3300     2.6140    -2.9890 oh         1 UD6      -0.593800
     26 C11          4.7400    -2.1810    -2.0160 c6         1 UD6       0.079100
     27 O9           6.1410    -2.3180    -2.0670 oh         1 UD6      -0.576800
     28 C4B         -2.8790     1.7110    -1.3290 c5         1 UD6       0.137100
     29 O4B         -3.3470     0.3630    -1.2140 os         1 UD6      -0.354600
     30 C12          4.1320    -2.8080    -0.7600 c6         1 UD6       0.130100
     31 O5           4.5910    -2.1460     0.4010 os         1 UD6      -0.403600
     32 C5B         -2.1370     2.1500    -0.0820 c3         1 UD6       0.201400
     33 O5B         -1.0970     1.2350     0.1760 os         1 UD6      -0.531200
     34 C13          4.4760    -4.2760    -0.6300 c3         1 UD6       0.144400
     35 O6           3.7340    -4.8310     0.4300 oh         1 UD6      -0.548800
     36 C7           5.0570     2.2420     0.4510 c          1 UD6       0.620100
     37 O7           6.0260     1.8730     1.0810 o          1 UD6      -0.586100
     38 C8           4.3780     3.5550     0.7130 c3         1 UD6      -0.192100
     39 C9           4.4860     1.4510    -0.6980 c3         1 UD6      -0.183400
     40 H5          -6.9600    -3.5860    -0.6660 ha         1 UD6       0.155000
     41 H6          -6.0930    -1.6980    -1.9560 h4         1 UD6       0.145000
     42 H1           4.8030    -0.4330     1.3730 h2         1 UD6       0.093700
     43 H1B         -5.1170     0.0570    -2.2130 h2         1 UD6       0.052700
     44 H2           5.9650    -0.1040    -0.6870 hc         1 UD6       0.063700
     45 HO2         -6.9150     2.6690    -0.9760 ho         1 UD6       0.406000
     46 H2B         -5.1880     1.9440     0.1650 h1         1 UD6       0.091700
     47 H3           3.3050    -0.6130    -2.0770 h1         1 UD6       0.072700
     48 HO3          4.5670    -0.3490    -3.9310 ho         1 UD6       0.376000
     49 H3B         -4.0190     3.5690    -1.1720 h1         1 UD6       0.060700
     50 HO3B        -5.2600     2.8250    -3.1350 ho         1 UD6       0.399000
     51 H4           4.2660    -2.6530    -2.8900 h1         1 UD6       0.000700
     52 HO4          6.3570    -3.2170    -2.3300 ho         1 UD6       0.373000
     53 H4B         -2.1900     1.7590    -2.1780 h1         1 UD6       0.096700
     54 H7           3.0390    -2.7260    -0.8480 h1         1 UD6       0.083700
     55 H5B         -1.7610     3.1610    -0.2800 h1         1 UD6       0.020200
     56 H5BA        -2.8130     2.2170     0.7750 h1         1 UD6       0.020200
     57 H10          4.2390    -4.7620    -1.5860 h1         1 UD6      -0.002800
     58 H6'A         5.5550    -4.3910    -0.4660 h1         1 UD6      -0.002800
     59 HO6          3.9870    -5.7550     0.5150 ho         1 UD6       0.373000
     60 H8           4.8520     4.0980     1.5290 hc         1 UD6       0.063033
     61 H8'A         4.4020     4.1730    -0.1880 hc         1 UD6       0.063033
     62 H8'B         3.3290     3.3690     0.9430 hc         1 UD6       0.063033
     63 H9           4.8440     1.9530    -1.6040 hc         1 UD6       0.086700
     64 H9'A         3.4010     1.5770    -0.7030 hc         1 UD6       0.086700
     65 HN3         -5.2350    -1.7640     2.7060 hn         1 UD6       0.343500
@<TRIPOS>BOND
     1     1     2 1   
     2     1     8 1   
     3     1    14 1   
     4     2     3 2   
     5     2     4 1   
     6     4     5 1   
     7     4    65 1   
     8     5     6 2   
     9     5     7 1   
    10     7     8 2   
    11     7    40 1   
    12     8    41 1   
    13     9    13 1   
    14     9    18 1   
    15     9    23 1   
    16     9    33 1   
    17    10    12 1   
    18    10    15 1   
    19    10    20 1   
    20    10    23 1   
    21    11    12 1   
    22    11    16 1   
    23    11    31 1   
    24    11    42 1   
    25    14    19 1   
    26    14    29 1   
    27    14    43 1   
    28    16    21 1   
    29    16    39 1   
    30    16    44 1   
    31    17    19 1   
    32    17    45 1   
    33    19    24 1   
    34    19    46 1   
    35    21    22 1   
    36    21    26 1   
    37    21    47 1   
    38    22    48 1   
    39    24    25 1   
    40    24    28 1   
    41    24    49 1   
    42    25    50 1   
    43    26    27 1   
    44    26    30 1   
    45    26    51 1   
    46    27    52 1   
    47    28    29 1   
    48    28    32 1   
    49    28    53 1   
    50    30    31 1   
    51    30    34 1   
    52    30    54 1   
    53    32    33 1   
    54    32    55 1   
    55    32    56 1   
    56    34    35 1   
    57    34    57 1   
    58    34    58 1   
    59    35    59 1   
    60    36    37 2   
    61    36    38 1   
    62    36    39 1   
    63    38    60 1   
    64    38    61 1   
    65    38    62 1   
    66    39    63 1   
    67    39    64 1   
@<TRIPOS>SUBSTRUCTURE
     1 UD6         1 TEMP              0 ****  ****    0 ROOT
