@<TRIPOS>MOLECULE
UD6
   65    67     1     0     0
SMALL
No Charge or Current Charge


@<TRIPOS>ATOM
      1 N1          -5.9990    -0.3770    -1.3430 n          1 UD6      -0.308000
      2 C2          -5.4080    -1.6190    -1.0090 c          1 UD6       0.614000
      3 O2          -4.3510    -1.7390    -0.4150 o          1 UD6      -0.492000
      4 N3          -6.1160    -2.7290    -1.3600 ns         1 UD6      -0.470500
      5 C4          -7.3180    -2.7980    -1.9810 c          1 UD6       0.598200
      6 O4          -7.8550    -3.8590    -2.2430 o          1 UD6      -0.563000
      7 C5          -7.8880    -1.4930    -2.2910 cc         1 UD6      -0.415200
      8 C6          -7.2370    -0.3230    -1.9790 cd         1 UD6       0.030600
      9 PA           0.2180     1.3580    -0.7030 p5         1 UD6       1.468800
     10 PB           2.4230     1.5100     0.7610 p5         1 UD6       1.464800
     11 C1           4.3840    -0.2000     0.7530 c6         1 UD6       0.444300
     12 O1           3.0650     0.1110     0.3060 os         1 UD6      -0.613400
     13 O1A          0.9690     0.8110    -1.8720 o          1 UD6      -0.859500
     14 C1B         -5.2770     0.9000    -1.0870 c5         1 UD6       0.350700
     15 O1B          2.8300     2.6470    -0.1120 o          1 UD6      -0.847000
     16 C10          5.4270    -0.1660    -0.4170 c6         1 UD6      -0.068700
     17 O8          -6.6860     1.7760     0.8350 oh         1 UD6      -0.728000
     18 O2A         -0.2030     2.7770    -0.8950 o          1 UD6      -0.859500
     19 C2B         -5.4010     1.2470     0.4320 c5         1 UD6       0.069300
     20 O2B          2.7550     1.8000     2.1860 o          1 UD6      -0.847000
     21 C3           5.1230    -1.3120    -1.4340 c6         1 UD6       0.178300
     22 O3           6.1520    -1.3940    -2.4300 oh         1 UD6      -0.655000
     23 O3A          0.9040     1.1010     0.6910 os         1 UD6      -0.689800
     24 C3B         -4.2980     2.3390     0.4960 c5         1 UD6       0.102300
     25 O3B         -4.8190     3.5700    -0.0220 oh         1 UD6      -0.716000
     26 C11          5.0350    -2.6950    -0.7160 c6         1 UD6       0.102300
     27 O9           6.3500    -3.0790    -0.2460 oh         1 UD6      -0.699000
     28 C4B         -3.1760     1.7060    -0.4100 c5         1 UD6       0.160300
     29 O4B         -3.8670     0.8440    -1.3630 os         1 UD6      -0.401000
     30 C12          3.9870    -2.5840     0.4360 c6         1 UD6       0.153300
     31 O5           4.3520    -1.5160     1.3500 os         1 UD6      -0.450000
     32 C5B         -2.1500     0.8570     0.4030 c3         1 UD6       0.224600
     33 O5B         -1.0660     0.4180    -0.4340 os         1 UD6      -0.554400
     34 C13          3.8210    -3.9150     1.2440 c3         1 UD6       0.167600
     35 O6           2.8290    -3.8330     2.2810 oh         1 UD6      -0.671000
     36 C7           6.0000     2.4200    -0.2590 c          1 UD6       0.620100
     37 O7           6.3660     2.2840     0.9020 o          1 UD6      -0.586100
     38 C8           6.0090     3.7880    -0.9390 c3         1 UD6      -0.192100
     39 C9           5.5570     1.2310    -1.1240 c3         1 UD6      -0.183400
     40 H5          -8.8520    -1.5030    -2.7880 ha         1 UD6       0.205000
     41 H6          -7.6110     0.6770    -2.1920 h4         1 UD6       0.195000
     42 H1           4.7060     0.5120     1.5300 h2         1 UD6       0.093700
     43 H1B         -5.7390     1.6790    -1.7060 h2         1 UD6       0.052700
     44 H2           6.4120    -0.3610     0.0290 hc         1 UD6       0.063700
     45 HO2         -7.3090     1.0150     0.9210 ho         1 UD6       0.505000
     46 H2B         -5.1180     0.3840     1.0530 h1         1 UD6       0.091700
     47 H3           4.1530    -1.1040    -1.9120 h1         1 UD6       0.072700
     48 HO3          6.8040    -2.0150    -2.0330 ho         1 UD6       0.415000
     49 H3B         -3.9460     2.4850     1.5280 h1         1 UD6       0.060700
     50 HO3B        -5.7790     3.5280     0.2200 ho         1 UD6       0.498000
     51 H4           4.6740    -3.4410    -1.4390 h1         1 UD6       0.000700
     52 HO4          6.2710    -3.9760     0.1510 ho         1 UD6       0.472000
     53 H4B         -2.6480     2.4940    -0.9580 h1         1 UD6       0.096700
     54 H7           3.0050    -2.3570    -0.0050 h1         1 UD6       0.083700
     55 H5B         -1.7680     1.4660     1.2330 h1         1 UD6       0.020200
     56 H5BA        -2.6610    -0.0080     0.8440 h1         1 UD6       0.020200
     57 H10          3.5500    -4.7120     0.5400 h1         1 UD6      -0.002800
     58 H6'A         4.7890    -4.1840     1.6860 h1         1 UD6      -0.002800
     59 HO6          2.8560    -4.6860     2.7700 ho         1 UD6       0.472000
     60 H8           6.3460     4.5900    -0.2720 hc         1 UD6       0.063033
     61 H8'A         6.6240     3.7300    -1.8430 hc         1 UD6       0.063033
     62 H8'B         5.0140     3.9920    -1.3500 hc         1 UD6       0.063033
     63 H9           6.2650     1.2000    -1.9600 hc         1 UD6       0.086700
     64 H9'A         4.6500     1.5180    -1.6660 hc         1 UD6       0.086700
     65 HN3         -5.6940    -3.6110    -1.1210 hn         1 UD6       0.343500
@<TRIPOS>BOND
     1     1     2 1   
     2     1     8 1   
     3     1    14 1   
     4     2     3 2   
     5     2     4 1   
     6     4     5 1   
     7     4    65 1   
     8     5     6 2   
     9     5     7 1   
    10     7     8 2   
    11     7    40 1   
    12     8    41 1   
    13     9    13 1   
    14     9    18 1   
    15     9    23 1   
    16     9    33 1   
    17    10    12 1   
    18    10    15 1   
    19    10    20 1   
    20    10    23 1   
    21    11    12 1   
    22    11    16 1   
    23    11    31 1   
    24    11    42 1   
    25    14    19 1   
    26    14    29 1   
    27    14    43 1   
    28    16    21 1   
    29    16    39 1   
    30    16    44 1   
    31    17    19 1   
    32    17    45 1   
    33    19    24 1   
    34    19    46 1   
    35    21    22 1   
    36    21    26 1   
    37    21    47 1   
    38    22    48 1   
    39    24    25 1   
    40    24    28 1   
    41    24    49 1   
    42    25    50 1   
    43    26    27 1   
    44    26    30 1   
    45    26    51 1   
    46    27    52 1   
    47    28    29 1   
    48    28    32 1   
    49    28    53 1   
    50    30    31 1   
    51    30    34 1   
    52    30    54 1   
    53    32    33 1   
    54    32    55 1   
    55    32    56 1   
    56    34    35 1   
    57    34    57 1   
    58    34    58 1   
    59    35    59 1   
    60    36    37 2   
    61    36    38 1   
    62    36    39 1   
    63    38    60 1   
    64    38    61 1   
    65    38    62 1   
    66    39    63 1   
    67    39    64 1   
@<TRIPOS>SUBSTRUCTURE
     1 UD6         1 TEMP              0 ****  ****    0 ROOT
