@<TRIPOS>MOLECULE
UD7
   61    63     1     0     0
SMALL
abcg2


@<TRIPOS>ATOM
      1 N1         -58.5370    -8.9200    12.8880 n          1 UD7      -0.332000
      2 C2         -59.2240    -8.1320    13.7870 c          1 UD7       0.607000
      3 O2         -58.6720    -7.5450    14.6960 o          1 UD7      -0.604000
      4 N3         -60.5760    -8.0620    13.5800 ns         1 UD7      -0.476500
      5 C4         -61.3140    -8.6450    12.5560 c          1 UD7       0.591200
      6 O4         -62.5200    -8.4940    12.5030 o          1 UD7      -0.568000
      7 C5         -60.5010    -9.3830    11.6260 cc         1 UD7      -0.389200
      8 C6         -59.1740    -9.4770    11.8200 cd         1 UD7       0.033600
      9 PA         -58.3700   -12.5140     9.8690 p5         1 UD7       1.466800
     10 PB         -56.6480   -13.7490     7.7680 p5         1 UD7       1.498800
     11 C1         -57.7460   -13.3310     5.3420 c6         1 UD7       0.460300
     12 O1         -57.8400   -13.2560     6.7320 os         1 UD7      -0.630400
     13 O1A        -59.7050   -13.0490    10.2630 o          1 UD7      -0.839500
     14 C1B        -57.0690    -9.0190    13.0760 c5         1 UD7       0.351700
     15 O1B        -56.2850   -15.1650     7.4730 o          1 UD7      -0.854500
     16 C9         -57.3930   -11.9580     4.7570 c6         1 UD7       0.033700
     17 O6         -55.4720    -9.3540    14.7850 oh         1 UD7      -0.717000
     18 O2A        -58.2240   -11.2400     9.0960 o          1 UD7      -0.839500
     19 C2B        -56.6990    -9.8410    14.3140 c5         1 UD7       0.089300
     20 O2B        -55.5860   -12.6850     7.8150 o          1 UD7      -0.854500
     21 C3         -58.5080   -10.9500     5.0990 c6         1 UD7       0.047300
     22 O3         -58.2780    -9.6720     4.5970 oh         1 UD7      -0.632000
     23 O3A        -57.5520   -13.7420     9.1200 os         1 UD7      -0.707800
     24 C3B        -56.5460   -11.2390    13.7110 c5         1 UD7       0.093300
     25 O3B        -55.6920   -12.0780    14.4380 oh         1 UD7      -0.714000
     26 C10        -59.8380   -11.5360     4.6570 c          1 UD7       0.530100
     27 O8         -60.6210   -10.9170     3.9810 o          1 UD7      -0.555100
     28 C4B        -55.9410   -10.9300    12.3470 c5         1 UD7       0.156300
     29 O4B        -56.5050    -9.6680    11.9820 os         1 UD7      -0.427000
     30 C11        -60.0960   -12.9610     5.1310 c6         1 UD7       0.077300
     31 O5         -58.9630   -13.7690     4.8270 os         1 UD7      -0.468000
     32 C5B        -56.1680   -11.9760    11.2780 c3         1 UD7       0.220600
     33 O5B        -57.5070   -12.4210    11.2610 os         1 UD7      -0.614400
     34 C12        -61.3070   -13.5990     4.4920 c3         1 UD7      -0.073100
     35 C7         -55.1940   -10.9470     4.4070 c          1 UD7       0.609100
     36 O7         -55.3820   -10.7300     3.2170 o          1 UD7      -0.686100
     37 C8         -53.8940   -10.5750     5.0790 c3         1 UD7      -0.175100
     38 N2         -56.1050   -11.5190     5.2150 ns         1 UD7      -0.487900
     39 H1         -61.0870    -7.5000    14.2510 hn         1 UD7       0.316500
     40 H2         -60.9570    -9.8480    10.7650 ha         1 UD7       0.251000
     41 H3         -58.5500    -9.9880    11.1050 h4         1 UD7       0.282000
     42 H4         -57.0020   -14.0700     5.0250 h2         1 UD7       0.073700
     43 H6         -56.6860    -7.9990    13.1460 h2         1 UD7       0.096700
     44 H7         -57.3430   -12.0710     3.6700 h1         1 UD7       0.057700
     45 H8         -55.0020   -10.0920    15.1910 ho         1 UD7       0.513000
     46 H9         -57.4700    -9.8110    15.0900 h1         1 UD7       0.061700
     47 H11        -58.5530   -10.8520     6.1910 h1         1 UD7       0.160700
     48 H12        -58.2420    -9.7100     3.6350 ho         1 UD7       0.433000
     49 H13        -57.5410   -11.6810    13.5880 h1         1 UD7       0.098700
     50 H14        -56.1980   -12.5110    15.1330 ho         1 UD7       0.502000
     51 H15        -54.8540   -10.8120    12.4500 h1         1 UD7       0.052700
     52 H16        -60.2470   -12.9150     6.2190 h1         1 UD7       0.104700
     53 H17        -55.5090   -12.8190    11.5090 h1         1 UD7       0.058700
     54 H18        -55.8480   -11.5800    10.3110 h1         1 UD7       0.058700
     55 H19        -62.2080   -13.0410     4.7420 hc         1 UD7       0.035033
     56 H20        -61.2190   -13.6390     3.4060 hc         1 UD7       0.035033
     57 H21        -61.4350   -14.6140     4.8670 hc         1 UD7       0.035033
     58 H22        -53.0600   -10.9770     4.5050 hc         1 UD7       0.053700
     59 H23        -53.7890    -9.4900     5.0850 hc         1 UD7       0.053700
     60 H24        -53.8150   -10.9310     6.1040 hc         1 UD7       0.053700
     61 H25        -55.8590   -11.6990     6.1890 hn         1 UD7       0.394500
@<TRIPOS>BOND
     1     1     2 1   
     2     1     8 1   
     3     1    14 1   
     4     2     3 2   
     5     2     4 1   
     6     4     5 1   
     7     4    39 1   
     8     5     6 2   
     9     5     7 1   
    10     7     8 2   
    11     7    40 1   
    12     8    41 1   
    13     9    13 1   
    14     9    18 1   
    15     9    23 1   
    16     9    33 1   
    17    10    12 1   
    18    10    15 1   
    19    10    20 1   
    20    10    23 1   
    21    11    12 1   
    22    11    16 1   
    23    11    31 1   
    24    11    42 1   
    25    14    19 1   
    26    14    29 1   
    27    14    43 1   
    28    16    21 1   
    29    16    38 1   
    30    16    44 1   
    31    17    19 1   
    32    17    45 1   
    33    19    24 1   
    34    19    46 1   
    35    21    22 1   
    36    21    26 1   
    37    21    47 1   
    38    22    48 1   
    39    24    25 1   
    40    24    28 1   
    41    24    49 1   
    42    25    50 1   
    43    26    27 2   
    44    26    30 1   
    45    28    29 1   
    46    28    32 1   
    47    28    51 1   
    48    30    31 1   
    49    30    34 1   
    50    30    52 1   
    51    32    33 1   
    52    32    53 1   
    53    32    54 1   
    54    34    55 1   
    55    34    56 1   
    56    34    57 1   
    57    35    36 2   
    58    35    37 1   
    59    35    38 1   
    60    37    58 1   
    61    37    59 1   
    62    37    60 1   
    63    38    61 1   
@<TRIPOS>SUBSTRUCTURE
     1 UD7         1 TEMP              0 ****  ****    0 ROOT
