@<TRIPOS>MOLECULE
UD7
   61    63     1     0     0
SMALL
No Charge or Current Charge


@<TRIPOS>ATOM
      1 N1         -57.4460    -8.6340    11.4120 n          1 UD7      -0.332000
      2 C2         -57.4220    -7.2520    11.6760 c          1 UD7       0.607000
      3 O2         -56.6800    -6.7360    12.4950 o          1 UD7      -0.604000
      4 N3         -58.2910    -6.4890    10.9610 ns         1 UD7      -0.476500
      5 C4         -59.1860    -6.8920    10.0250 c          1 UD7       0.591200
      6 O4         -59.9230    -6.1100     9.4520 o          1 UD7      -0.568000
      7 C5         -59.1710    -8.3290     9.7880 cc         1 UD7      -0.389200
      8 C6         -58.3170    -9.1710    10.4630 cd         1 UD7       0.033600
      9 PA         -57.4120   -13.7980     9.7280 p5         1 UD7       1.466800
     10 PB         -56.0500   -13.8290     7.4310 p5         1 UD7       1.498800
     11 C1         -57.7110   -12.9140     5.6560 c6         1 UD7       0.460300
     12 O1         -57.5250   -13.7270     6.8130 os         1 UD7      -0.630400
     13 O1A        -58.6430   -14.6310     9.8550 o          1 UD7      -0.839500
     14 C1B        -56.5280    -9.5110    12.1840 c5         1 UD7       0.351700
     15 O1B        -55.2190   -14.7350     6.5890 o          1 UD7      -0.854500
     16 C9         -58.1840   -11.4460     5.9840 c6         1 UD7       0.033700
     17 O6         -56.8040   -10.1690    14.6070 oh         1 UD7      -0.717000
     18 O2A        -57.7330   -12.3840     9.4040 o          1 UD7      -0.839500
     19 C2B        -57.3800   -10.2510    13.2960 c5         1 UD7       0.089300
     20 O2B        -55.3830   -12.5090     7.6020 o          1 UD7      -0.854500
     21 C3         -59.6140   -11.4220     6.6230 c6         1 UD7       0.047300
     22 O3         -60.1290   -10.0620     6.6300 oh         1 UD7      -0.632000
     23 O3A        -56.3510   -14.5160     8.8120 os         1 UD7      -0.707800
     24 C3B        -57.2880   -11.7390    12.8310 c5         1 UD7       0.093300
     25 O3B        -57.3910   -12.6450    13.9490 oh         1 UD7      -0.714000
     26 C10        -60.6090   -12.4200     5.9430 c          1 UD7       0.530100
     27 O8         -61.7980   -12.1540     5.7660 o          1 UD7      -0.555100
     28 C4B        -55.8850   -11.7290    12.1510 c5         1 UD7       0.156300
     29 O4B        -55.9570   -10.5400    11.3450 os         1 UD7      -0.427000
     30 C11        -59.9760   -13.7630     5.4850 c6         1 UD7       0.077300
     31 O5         -58.6990   -13.5640     4.8290 os         1 UD7      -0.468000
     32 C5B        -55.4600   -12.9810    11.3180 c3         1 UD7       0.220600
     33 O5B        -56.5650   -13.8800    11.0950 os         1 UD7      -0.614400
     34 C12        -60.8810   -14.5390     4.4880 c3         1 UD7      -0.073100
     35 C7         -57.1220    -9.3330     6.9480 c          1 UD7       0.609100
     36 O7         -57.9080    -8.5780     6.3930 o          1 UD7      -0.686100
     37 C8         -55.9890    -8.8440     7.8390 c3         1 UD7      -0.175100
     38 N2         -57.2170   -10.6920     6.8190 ns         1 UD7      -0.487900
     39 H1         -58.2710    -5.5010    11.1550 hn         1 UD7       0.316500
     40 H2         -59.8730    -8.6880     9.0440 ha         1 UD7       0.251000
     41 H3         -58.2520   -10.2480    10.3200 h4         1 UD7       0.282000
     42 H4         -56.7700   -12.8610     5.0830 h2         1 UD7       0.073700
     43 H6         -55.7350    -8.8990    12.6320 h2         1 UD7       0.096700
     44 H7         -58.2440   -10.9260     5.0170 h1         1 UD7       0.057700
     45 H8         -56.8800   -11.1090    14.9220 ho         1 UD7       0.513000
     46 H9         -58.4240    -9.9070    13.3140 h1         1 UD7       0.061700
     47 H11        -59.5170   -11.8080     7.6500 h1         1 UD7       0.160700
     48 H12        -59.3390    -9.4650     6.5250 ho         1 UD7       0.433000
     49 H13        -58.0710   -11.9480    12.0870 h1         1 UD7       0.098700
     50 H14        -57.3750   -13.5590    13.5730 ho         1 UD7       0.502000
     51 H15        -55.0990   -11.5690    12.9030 h1         1 UD7       0.052700
     52 H16        -59.8410   -14.3780     6.3870 h1         1 UD7       0.104700
     53 H17        -54.6710   -13.5050    11.8720 h1         1 UD7       0.058700
     54 H18        -55.0150   -12.6460    10.3710 h1         1 UD7       0.058700
     55 H19        -61.8460   -14.7930     4.9430 hc         1 UD7       0.035033
     56 H20        -61.0800   -13.9480     3.5860 hc         1 UD7       0.035033
     57 H21        -60.4080   -15.4780     4.1780 hc         1 UD7       0.035033
     58 H22        -56.0360    -7.7650     8.0270 hc         1 UD7       0.053700
     59 H23        -55.9730    -9.4270     8.7660 hc         1 UD7       0.053700
     60 H24        -55.0370    -9.1220     7.3740 hc         1 UD7       0.053700
     61 H25        -56.5250   -11.2310     7.3480 hn         1 UD7       0.394500
@<TRIPOS>BOND
     1     1     2 1   
     2     1     8 1   
     3     1    14 1   
     4     2     3 2   
     5     2     4 1   
     6     4     5 1   
     7     4    39 1   
     8     5     6 2   
     9     5     7 1   
    10     7     8 2   
    11     7    40 1   
    12     8    41 1   
    13     9    13 1   
    14     9    18 1   
    15     9    23 1   
    16     9    33 1   
    17    10    12 1   
    18    10    15 1   
    19    10    20 1   
    20    10    23 1   
    21    11    12 1   
    22    11    16 1   
    23    11    31 1   
    24    11    42 1   
    25    14    19 1   
    26    14    29 1   
    27    14    43 1   
    28    16    21 1   
    29    16    38 1   
    30    16    44 1   
    31    17    19 1   
    32    17    45 1   
    33    19    24 1   
    34    19    46 1   
    35    21    22 1   
    36    21    26 1   
    37    21    47 1   
    38    22    48 1   
    39    24    25 1   
    40    24    28 1   
    41    24    49 1   
    42    25    50 1   
    43    26    27 2   
    44    26    30 1   
    45    28    29 1   
    46    28    32 1   
    47    28    51 1   
    48    30    31 1   
    49    30    34 1   
    50    30    52 1   
    51    32    33 1   
    52    32    53 1   
    53    32    54 1   
    54    34    55 1   
    55    34    56 1   
    56    34    57 1   
    57    35    36 2   
    58    35    37 1   
    59    35    38 1   
    60    37    58 1   
    61    37    59 1   
    62    37    60 1   
    63    38    61 1   
@<TRIPOS>SUBSTRUCTURE
     1 UD7         1 TEMP              0 ****  ****    0 ROOT
