@<TRIPOS>MOLECULE
UD9
   64    66     1     0     0
SMALL
abcg2


@<TRIPOS>ATOM
      1 C01         23.9060   -36.5420    -7.4940 c3         1 UD9      -0.179100
      2 C02         23.2130   -37.8490    -7.7890 c          1 UD9       0.620100
      3 C05         24.5510   -38.9870    -5.9990 c6         1 UD9       0.029700
      4 C06         23.9870   -39.6470    -4.7060 c6         1 UD9       0.154300
      5 C07         24.3140   -41.1340    -4.7010 c6         1 UD9       0.141300
      6 C08         25.8490   -41.2950    -4.7080 c6         1 UD9       0.146300
      7 C10         25.7900   -39.7520    -6.4850 c6         1 UD9       0.459300
      8 C20         29.9400   -36.1200    -6.1400 c3         1 UD9       0.255600
      9 C21         28.5560   -36.2470    -5.5360 c5         1 UD9       0.123300
     10 C22         28.1870   -35.0920    -4.6120 c5         1 UD9       0.135300
     11 C23         27.0770   -35.7170    -3.7590 c5         1 UD9       0.085300
     12 C24         27.5740   -37.1710    -3.6450 c5         1 UD9       0.312700
     13 C27         29.6170   -37.5590    -2.2660 cc         1 UD9       0.054600
     14 C28         30.2440   -37.7990    -1.1000 cd         1 UD9      -0.430200
     15 C29         29.4790   -37.9420     0.1120 c          1 UD9       0.596200
     16 C32         27.4530   -37.5650    -1.2600 c          1 UD9       0.612000
     17 C36         26.2680   -42.6410    -5.2720 c3         1 UD9       0.150600
     18 N04         23.5660   -38.9210    -7.0470 ns         1 UD9      -0.490900
     19 N26         28.2650   -37.4300    -2.3660 n          1 UD9      -0.317000
     20 N31         28.1100   -37.8120    -0.0860 ns         1 UD9      -0.472500
     21 O03         22.3620   -37.9410    -8.6630 o          1 UD9      -0.653100
     22 O09         26.5010   -40.2240    -5.3720 os         1 UD9      -0.427000
     23 O11         26.5840   -38.8870    -7.2040 os         1 UD9      -0.575400
     24 O13         27.9490   -38.3550    -9.2290 o          1 UD9      -0.840000
     25 O14         27.6860   -40.8470    -8.4590 o          1 UD9      -0.840000
     26 O15         29.0670   -39.2290    -7.0720 os         1 UD9      -0.710800
     27 O17         31.2800   -38.8170    -5.9680 o          1 UD9      -0.847000
     28 O18         31.1140   -38.8290    -8.5730 o          1 UD9      -0.847000
     29 O19         30.1510   -36.9140    -7.2850 os         1 UD9      -0.580400
     30 O25         28.4630   -37.3880    -4.6910 os         1 UD9      -0.383000
     31 O30         29.9230   -38.1590     1.2230 o          1 UD9      -0.575000
     32 O33         26.2440   -37.4670    -1.3270 o          1 UD9      -0.597000
     33 O34         25.8720   -35.6490    -4.4700 oh         1 UD9      -0.687000
     34 O35         27.8280   -33.9690    -5.3540 oh         1 UD9      -0.673000
     35 O37         27.6500   -42.8070    -5.0750 oh         1 UD9      -0.674000
     36 O38         23.7590   -41.7250    -3.5540 oh         1 UD9      -0.714000
     37 O39         22.6020   -39.4910    -4.5840 oh         1 UD9      -0.655000
     38 P12         27.8520   -39.3910    -8.1600 p5         1 UD9       1.479800
     39 P16         30.5400   -38.5120    -7.2310 p5         1 UD9       1.477800
     40 H1          23.5460   -35.7830    -8.1830 hc         1 UD9       0.065367
     41 H2          23.7060   -36.2040    -6.4760 hc         1 UD9       0.065367
     42 H3          24.9870   -36.6280    -7.6000 hc         1 UD9       0.065367
     43 H4          24.8580   -37.9730    -5.7420 h1         1 UD9       0.083700
     44 H5          24.5050   -39.1860    -3.8530 h1         1 UD9       0.051700
     45 H6          23.8860   -41.5930    -5.6060 h1         1 UD9       0.037700
     46 H7          26.1770   -41.2340    -3.6650 h1         1 UD9       0.075700
     47 H8          25.4660   -40.5950    -7.1160 h2         1 UD9       0.028700
     48 H9          30.6970   -36.3030    -5.3700 h1         1 UD9       0.018200
     49 H10         30.0540   -35.0830    -6.4660 h1         1 UD9       0.018200
     50 H11         27.8170   -36.3210    -6.3450 h1         1 UD9       0.118700
     51 H12         29.0410   -34.8850    -3.9490 h1         1 UD9       0.028700
     52 H13         26.9930   -35.2370    -2.7780 h1         1 UD9       0.035700
     53 H14         26.7410   -37.8770    -3.7000 h2         1 UD9       0.105700
     54 H15         30.1690   -37.4750    -3.1900 h4         1 UD9       0.268000
     55 H16         31.3180   -37.8970    -1.0680 ha         1 UD9       0.222000
     56 H17         25.6900   -43.4230    -4.7610 h1         1 UD9       0.007200
     57 H18         25.9960   -42.6980    -6.3360 h1         1 UD9       0.007200
     58 H19         23.0840   -39.7790    -7.2780 hn         1 UD9       0.303500
     59 H20         27.5170   -37.9070     0.7300 hn         1 UD9       0.322500
     60 H23         25.1760   -36.0300    -3.9250 ho         1 UD9       0.500000
     61 H24         27.7820   -33.2080    -4.7670 ho         1 UD9       0.484000
     62 H25         27.9060   -43.6580    -5.4410 ho         1 UD9       0.492000
     63 H26         23.6700   -42.6710    -3.7000 ho         1 UD9       0.493000
     64 H27         22.4020   -38.5510    -4.5380 ho         1 UD9       0.438000
@<TRIPOS>BOND
     1     1     2 1   
     2     1    40 1   
     3     1    41 1   
     4     1    42 1   
     5     2    18 1   
     6     2    21 2   
     7     3     4 1   
     8     3     7 1   
     9     3    18 1   
    10     3    43 1   
    11     4     5 1   
    12     4    37 1   
    13     4    44 1   
    14     5     6 1   
    15     5    36 1   
    16     5    45 1   
    17     6    17 1   
    18     6    22 1   
    19     6    46 1   
    20     7    22 1   
    21     7    23 1   
    22     7    47 1   
    23     8     9 1   
    24     8    29 1   
    25     8    48 1   
    26     8    49 1   
    27     9    10 1   
    28     9    30 1   
    29     9    50 1   
    30    10    11 1   
    31    10    34 1   
    32    10    51 1   
    33    11    12 1   
    34    11    33 1   
    35    11    52 1   
    36    12    19 1   
    37    12    30 1   
    38    12    53 1   
    39    13    14 2   
    40    13    19 1   
    41    13    54 1   
    42    14    15 1   
    43    14    55 1   
    44    15    20 1   
    45    15    31 2   
    46    16    19 1   
    47    16    20 1   
    48    16    32 2   
    49    17    35 1   
    50    17    56 1   
    51    17    57 1   
    52    18    58 1   
    53    20    59 1   
    54    23    38 1   
    55    24    38 1   
    56    25    38 1   
    57    26    38 1   
    58    26    39 1   
    59    27    39 1   
    60    28    39 1   
    61    29    39 1   
    62    33    60 1   
    63    34    61 1   
    64    35    62 1   
    65    36    63 1   
    66    37    64 1   
@<TRIPOS>SUBSTRUCTURE
     1 UD9         1 TEMP              0 ****  ****    0 ROOT
