@<TRIPOS>MOLECULE
UD9
   64    66     1     0     0
SMALL
No Charge or Current Charge


@<TRIPOS>ATOM
      1 C01         22.8290   -37.6720    -8.2120 c3         1 UD9      -0.179100
      2 C02         22.9700   -39.1930    -8.2820 c          1 UD9       0.620100
      3 C05         24.0360   -39.2890    -5.9320 c6         1 UD9       0.029700
      4 C06         23.6510   -40.1320    -4.6550 c6         1 UD9       0.154300
      5 C07         24.7710   -41.1580    -4.3000 c6         1 UD9       0.141300
      6 C08         26.1140   -40.4070    -4.0190 c6         1 UD9       0.146300
      7 C10         25.5990   -39.1320    -6.0130 c6         1 UD9       0.459300
      8 C20         30.5120   -36.9120    -6.4930 c3         1 UD9       0.255600
      9 C21         29.3820   -36.3980    -5.5570 c5         1 UD9       0.123300
     10 C22         29.8650   -35.4110    -4.4560 c5         1 UD9       0.135300
     11 C23         28.6030   -35.3550    -3.5390 c5         1 UD9       0.085300
     12 C24         28.0170   -36.8070    -3.7440 c5         1 UD9       0.312700
     13 C27         29.3060   -38.0040    -1.9610 cc         1 UD9       0.054600
     14 C28         29.3340   -38.6320    -0.7360 cd         1 UD9      -0.430200
     15 C29         28.1290   -38.8120     0.0700 c          1 UD9       0.596200
     16 C32         26.9030   -37.6420    -1.6900 c          1 UD9       0.612000
     17 C36         27.3750   -41.2100    -4.4680 c3         1 UD9       0.150600
     18 N04         23.4370   -39.8640    -7.1710 ns         1 UD9      -0.490900
     19 N26         28.0840   -37.5320    -2.4490 n          1 UD9      -0.317000
     20 N31         27.0150   -38.2870    -0.4980 ns         1 UD9      -0.472500
     21 O03         22.6130   -39.8250    -9.2640 o          1 UD9      -0.653100
     22 O09         26.1280   -39.1190    -4.6800 os         1 UD9      -0.427000
     23 O11         26.0000   -37.9230    -6.6360 os         1 UD9      -0.575400
     24 O13         27.0300   -36.7270    -8.5900 o          1 UD9      -0.840000
     25 O14         26.1520   -39.0330    -8.9150 o          1 UD9      -0.840000
     26 O15         28.1230   -38.6830    -7.3220 os         1 UD9      -0.710800
     27 O17         30.3850   -39.6980    -7.7580 o          1 UD9      -0.847000
     28 O18         29.1940   -38.7540    -9.6670 o          1 UD9      -0.847000
     29 O19         29.9870   -37.1800    -7.8030 os         1 UD9      -0.580400
     30 O25         28.8310   -37.4550    -4.7450 os         1 UD9      -0.383000
     31 O30         28.1110   -39.3690     1.1530 o          1 UD9      -0.575000
     32 O33         25.8300   -37.1800    -2.0410 o          1 UD9      -0.597000
     33 O34         27.7030   -34.3240    -4.0020 oh         1 UD9      -0.687000
     34 O35         30.1800   -34.1050    -4.9360 oh         1 UD9      -0.673000
     35 O37         28.5730   -40.4270    -4.3840 oh         1 UD9      -0.674000
     36 O38         24.3780   -41.9870    -3.1940 oh         1 UD9      -0.714000
     37 O39         22.3990   -40.8270    -4.8280 oh         1 UD9      -0.655000
     38 P12         26.8360   -38.0810    -7.9950 p5         1 UD9       1.479800
     39 P16         29.4280   -38.6390    -8.1980 p5         1 UD9       1.477800
     40 H1          22.4300   -37.2480    -9.1390 hc         1 UD9       0.065367
     41 H2          22.1940   -37.4140    -7.3570 hc         1 UD9       0.065367
     42 H3          23.7880   -37.2200    -7.9440 hc         1 UD9       0.065367
     43 H4          23.6190   -38.2850    -5.7750 h1         1 UD9       0.083700
     44 H5          23.5670   -39.4310    -3.8110 h1         1 UD9       0.051700
     45 H6          24.9160   -41.7960    -5.1860 h1         1 UD9       0.037700
     46 H7          26.2020   -40.2230    -2.9390 h1         1 UD9       0.075700
     47 H8          26.0180   -39.9990    -6.5450 h2         1 UD9       0.028700
     48 H9          30.9820   -37.8000    -6.0490 h1         1 UD9       0.018200
     49 H10         31.2860   -36.1370    -6.5710 h1         1 UD9       0.018200
     50 H11         28.5870   -35.9490    -6.1680 h1         1 UD9       0.118700
     51 H12         30.7230   -35.8330    -3.9150 h1         1 UD9       0.028700
     52 H13         28.8860   -35.1670    -2.4940 h1         1 UD9       0.035700
     53 H14         26.9720   -36.7720    -4.0780 h2         1 UD9       0.105700
     54 H15         30.1540   -37.8470    -2.6260 h4         1 UD9       0.268000
     55 H16         30.2450   -39.0350    -0.3080 ha         1 UD9       0.222000
     56 H17         27.4640   -42.1040    -3.8380 h1         1 UD9       0.007200
     57 H18         27.2290   -41.5490    -5.5020 h1         1 UD9       0.007200
     58 H19         23.4450   -40.8730    -7.2680 hn         1 UD9       0.303500
     59 H20         26.1650   -38.3710     0.0370 hn         1 UD9       0.322500
     60 H23         26.9550   -34.2680    -3.3590 ho         1 UD9       0.500000
     61 H24         29.3280   -33.6180    -4.8090 ho         1 UD9       0.484000
     62 H25         28.3590   -39.5460    -4.7780 ho         1 UD9       0.492000
     63 H26         23.4050   -42.1070    -3.3160 ho         1 UD9       0.493000
     64 H27         21.8280   -40.2470    -5.3790 ho         1 UD9       0.438000
@<TRIPOS>BOND
     1     1     2 1   
     2     1    40 1   
     3     1    41 1   
     4     1    42 1   
     5     2    18 1   
     6     2    21 2   
     7     3     4 1   
     8     3     7 1   
     9     3    18 1   
    10     3    43 1   
    11     4     5 1   
    12     4    37 1   
    13     4    44 1   
    14     5     6 1   
    15     5    36 1   
    16     5    45 1   
    17     6    17 1   
    18     6    22 1   
    19     6    46 1   
    20     7    22 1   
    21     7    23 1   
    22     7    47 1   
    23     8     9 1   
    24     8    29 1   
    25     8    48 1   
    26     8    49 1   
    27     9    10 1   
    28     9    30 1   
    29     9    50 1   
    30    10    11 1   
    31    10    34 1   
    32    10    51 1   
    33    11    12 1   
    34    11    33 1   
    35    11    52 1   
    36    12    19 1   
    37    12    30 1   
    38    12    53 1   
    39    13    14 2   
    40    13    19 1   
    41    13    54 1   
    42    14    15 1   
    43    14    55 1   
    44    15    20 1   
    45    15    31 2   
    46    16    19 1   
    47    16    20 1   
    48    16    32 2   
    49    17    35 1   
    50    17    56 1   
    51    17    57 1   
    52    18    58 1   
    53    20    59 1   
    54    23    38 1   
    55    24    38 1   
    56    25    38 1   
    57    26    38 1   
    58    26    39 1   
    59    27    39 1   
    60    28    39 1   
    61    29    39 1   
    62    33    60 1   
    63    34    61 1   
    64    35    62 1   
    65    36    63 1   
    66    37    64 1   
@<TRIPOS>SUBSTRUCTURE
     1 UD9         1 TEMP              0 ****  ****    0 ROOT
