@<TRIPOS>MOLECULE
UDA
   76    78     1     0     0
SMALL
No Charge or Current Charge


@<TRIPOS>ATOM
      1 C1          -3.9700     0.6540     1.9350 c          1 UDA       0.600200
      2 N1          -2.7180     0.3920     1.4900 ns         1 UDA      -0.448500
      3 C3          -1.5350     0.5420     2.1420 c          1 UDA       0.631000
      4 N2          -1.6160     1.0850     3.4480 n          1 UDA      -0.310000
      5 C5          -2.8480     1.4090     4.0160 cc         1 UDA      -0.010400
      6 C6          -3.9980     1.1970     3.2970 cd         1 UDA      -0.362200
      7 O1          -4.9680     0.4410     1.2700 o          1 UDA      -0.514000
      8 O2          -0.5020     0.1770     1.6140 o          1 UDA      -0.537000
      9 C9           0.0240     0.0340     4.9760 c5         1 UDA       0.060300
     10 C2          -0.3860     1.3540     4.2470 c5         1 UDA       0.368700
     11 O3           0.7670     1.7570     3.4830 os         1 UDA      -0.379000
     12 C4           1.9580     1.1870     4.1040 c5         1 UDA       0.171300
     13 C15          1.4570     0.4570     5.4050 c5         1 UDA       0.091300
     14 C12          2.6510     0.2130     3.1110 c3         1 UDA       0.217600
     15 O14          1.3840     1.3140     6.5530 oh         1 UDA      -0.739000
     16 O4           3.3050     0.9600     2.0750 os         1 UDA      -0.582400
     17 P1           4.1900     0.1670     0.9850 p5         1 UDA       1.497800
     18 O5           5.2030    -0.7130     1.6390 o          1 UDA      -0.876000
     19 O6           4.8900     1.1420     0.0970 o          1 UDA      -0.876000
     20 O7           3.0130    -0.5310     0.2000 os         1 UDA      -0.705800
     21 P2           2.9540    -2.0960     0.3210 p5         1 UDA       1.519800
     22 O8           1.4330    -2.2880    -0.1500 os         1 UDA      -0.619400
     23 O9           3.0350    -2.6180     1.7180 o          1 UDA      -0.885000
     24 O10          3.8950    -2.7920    -0.6060 o          1 UDA      -0.885000
     25 C10          1.0970    -2.5370    -1.5140 c6         1 UDA       0.449300
     26 C18          0.9840    -1.2730    -2.4380 c6         1 UDA       0.063700
     27 C13         -0.1400    -0.3070    -1.9320 c6         1 UDA       0.162300
     28 C20         -1.4840    -1.1190    -1.7670 c6         1 UDA       0.185300
     29 C16         -1.2620    -2.4280    -0.9400 c6         1 UDA       0.155300
     30 C17         -2.5470    -3.3260    -0.9010 c3         1 UDA       0.154600
     31 N3           2.2690    -0.5890    -2.6700 ns         1 UDA      -0.437900
     32 O21         -0.3010     0.7740    -2.9060 os         1 UDA      -0.506000
     33 O22         -2.5450    -0.3320    -1.1970 oh         1 UDA      -0.927000
     34 O23         -0.1740    -3.2120    -1.5050 os         1 UDA      -0.507000
     35 O24         -2.3690    -4.5720    -0.1970 oh         1 UDA      -0.713000
     36 O12          3.1930    -2.0790    -4.1170 o          1 UDA      -0.747100
     37 C8           4.4840    -0.1090    -3.5820 c3         1 UDA      -0.172100
     38 C11         -0.2470     2.1850    -2.5120 c3         1 UDA       0.349000
     39 C19         -0.1820     2.9470    -3.8660 c3         1 UDA      -0.105100
     40 O13         -1.4620     2.5400    -1.7930 os         1 UDA      -0.598400
     41 P3          -2.9530     2.6520    -2.3890 p5         1 UDA       1.346900
     42 O15         -3.3600     1.3100    -2.8930 o          1 UDA      -0.900500
     43 O16         -3.8630     3.0380    -1.2780 o          1 UDA      -0.900500
     44 O17         -3.0590     3.6860    -3.4570 o          1 UDA      -0.900500
     45 C14          1.0800     2.5990    -1.6900 c          1 UDA       0.698000
     46 O18          2.1420     2.0440    -1.9570 o          1 UDA      -0.738500
     47 O19          1.0110     3.4630    -0.8170 o          1 UDA      -0.738500
     48 HN1         -2.6530     0.0540     0.5320 hn         1 UDA       0.422500
     49 H6          -2.7850     1.8150     5.0210 h4         1 UDA       0.141000
     50 H7          -4.9800     1.4240     3.6940 ha         1 UDA       0.166000
     51 H3          -0.6320     2.1420     4.9700 h2         1 UDA       0.012700
     52 H4           2.6600     1.9940     4.3500 h1         1 UDA       0.052700
     53 H5           2.0750    -0.4220     5.6350 h1         1 UDA       0.050700
     54 H121         1.8940    -0.4620     2.6930 h1         1 UDA       0.047700
     55 H122         3.3810    -0.3920     3.6650 h1         1 UDA       0.047700
     56 H14          0.5770     0.9890     7.0250 ho         1 UDA       0.479000
     57 H10          1.8370    -3.2240    -1.9530 h2         1 UDA       0.064700
     58 H18          0.6560    -1.6410    -3.4210 h1         1 UDA       0.040700
     59 H13          0.1560     0.1060    -0.9570 h1         1 UDA       0.094700
     60 H20         -1.7950    -1.4300    -2.7750 h1         1 UDA       0.008700
     61 H16         -1.0150    -2.1590     0.0970 h1         1 UDA       0.080700
     62 H171        -3.3560    -2.7540    -0.4270 h1         1 UDA       0.016700
     63 H172        -2.8570    -3.5260    -1.9360 h1         1 UDA       0.016700
     64 HN3          2.4060     0.3310    -2.2440 hn         1 UDA       0.408500
     65 H22         -2.8280     0.3260    -1.9440 ho         1 UDA       0.638000
     66 H24         -3.2070    -5.0760    -0.2950 ho         1 UDA       0.432000
     67 H81          5.2540    -0.4850    -4.2660 hc         1 UDA       0.045700
     68 H82          4.1510     0.8970    -3.8620 hc         1 UDA       0.045700
     69 H83          4.8850     0.0530    -2.5750 hc         1 UDA       0.045700
     70 H191        -0.9310     2.5830    -4.5790 hc         1 UDA       0.020367
     71 H192        -0.3160     4.0250    -3.7160 hc         1 UDA       0.020367
     72 H193         0.8000     2.8040    -4.3320 hc         1 UDA       0.020367
     73 O11         -0.7870    -0.3150     6.1250 oh         1 UDA      -0.741000
     74 C7           3.2720    -1.0290    -3.4890 c          1 UDA       0.611100
     75 H11         -1.6540    -0.6450     5.7890 ho         1 UDA       0.486000
     76 H9           0.0700    -0.7980     4.2550 h1         1 UDA       0.121700
@<TRIPOS>BOND
     1     1     2 1   
     2     1     6 1   
     3     1     7 2   
     4     2     3 1   
     5     2    48 1   
     6     3     4 1   
     7     3     8 2   
     8     4     5 1   
     9     4    10 1   
    10     5     6 2   
    11     5    49 1   
    12     6    50 1   
    13     9    10 1   
    14     9    13 1   
    15     9    73 1   
    16     9    76 1   
    17    10    11 1   
    18    10    51 1   
    19    11    12 1   
    20    12    13 1   
    21    12    14 1   
    22    12    52 1   
    23    13    15 1   
    24    13    53 1   
    25    14    16 1   
    26    14    54 1   
    27    14    55 1   
    28    15    56 1   
    29    16    17 1   
    30    17    18 1   
    31    17    19 1   
    32    17    20 1   
    33    20    21 1   
    34    21    22 1   
    35    21    23 1   
    36    21    24 1   
    37    22    25 1   
    38    25    26 1   
    39    25    34 1   
    40    25    57 1   
    41    26    27 1   
    42    26    31 1   
    43    26    58 1   
    44    27    28 1   
    45    27    32 1   
    46    27    59 1   
    47    28    29 1   
    48    28    33 1   
    49    28    60 1   
    50    29    30 1   
    51    29    34 1   
    52    29    61 1   
    53    30    35 1   
    54    30    62 1   
    55    30    63 1   
    56    31    64 1   
    57    31    74 1   
    58    32    38 1   
    59    33    65 1   
    60    35    66 1   
    61    36    74 2   
    62    37    67 1   
    63    37    68 1   
    64    37    69 1   
    65    37    74 1   
    66    38    39 1   
    67    38    40 1   
    68    38    45 1   
    69    39    70 1   
    70    39    71 1   
    71    39    72 1   
    72    40    41 1   
    73    41    42 1   
    74    41    43 1   
    75    41    44 1   
    76    45    46 1   
    77    45    47 1   
    78    73    75 1   
@<TRIPOS>SUBSTRUCTURE
     1 UDA         1 TEMP              0 ****  ****    0 ROOT
