@<TRIPOS>MOLECULE
UDA
   76    78     1     0     0
SMALL
bcc


@<TRIPOS>ATOM
      1 C1          -3.3390     1.7620     1.3500 c          1 UDA       0.742700
      2 N1          -2.3990     0.7610     1.2480 ns         1 UDA      -0.582500
      3 C3          -1.2860     0.5920     2.0190 c          1 UDA       0.840500
      4 N2          -1.1520     1.4840     3.0790 n          1 UDA      -0.377000
      5 C5          -2.0160     2.5360     3.2030 cc         1 UDA       0.039600
      6 C6          -3.0700     2.7210     2.3970 cd         1 UDA      -0.312200
      7 O1          -4.3220     1.7860     0.6300 o          1 UDA      -0.589500
      8 O2          -0.5060    -0.3190     1.8360 o          1 UDA      -0.612500
      9 C9          -0.0360    -0.0360     4.7640 c5         1 UDA       0.037100
     10 C2          -0.1130     1.3290     4.0770 c5         1 UDA       0.345500
     11 O3           1.1540     1.5800     3.5490 os         1 UDA      -0.332600
     12 C4           2.1320     0.7410     4.1680 c5         1 UDA       0.148100
     13 C15          1.4050    -0.0180     5.2770 c5         1 UDA       0.068100
     14 C12          2.7890    -0.1620     3.1480 c3         1 UDA       0.194400
     15 O14          1.5010     0.7220     6.4700 oh         1 UDA      -0.616800
     16 O4           3.5450     0.6480     2.2740 os         1 UDA      -0.559200
     17 P1           4.5180    -0.0410     1.1500 p5         1 UDA       1.497800
     18 O5           5.4410    -1.0290     1.7970 o          1 UDA      -0.876000
     19 O6           5.0730     1.1070     0.3650 o          1 UDA      -0.876000
     20 O7           3.4340    -0.8120     0.2110 os         1 UDA      -0.705800
     21 P2           3.0860    -2.4040     0.1010 p5         1 UDA       1.519800
     22 O8           1.5200    -2.2710    -0.3770 os         1 UDA      -0.596200
     23 O9           3.0500    -3.0350     1.4570 o          1 UDA      -0.885000
     24 O10          3.9060    -3.0100    -0.9970 o          1 UDA      -0.885000
     25 C10          1.0670    -2.4630    -1.6830 c6         1 UDA       0.402900
     26 C18          0.7850    -1.1310    -2.3830 c6         1 UDA       0.063700
     27 C13         -0.4030    -0.4030    -1.7530 c6         1 UDA       0.139100
     28 C20         -1.6130    -1.3360    -1.6900 c6         1 UDA       0.162100
     29 C16         -1.2060    -2.6470    -1.0050 c6         1 UDA       0.132100
     30 C17         -2.3310    -3.6570    -1.0410 c3         1 UDA       0.131400
     31 N3           1.9260    -0.2590    -2.3740 ns         1 UDA      -0.504900
     32 O21         -0.6480     0.7100    -2.5850 os         1 UDA      -0.459600
     33 O22         -2.6900    -0.7770    -1.0080 oh         1 UDA      -0.804800
     34 O23         -0.0910    -3.2410    -1.6560 os         1 UDA      -0.460600
     35 O24         -1.9610    -4.8030    -0.3030 oh         1 UDA      -0.590800
     36 O12          3.0170    -1.2490    -4.0860 o          1 UDA      -0.747100
     37 C8           4.0060     0.6920    -3.0740 c3         1 UDA      -0.172100
     38 C11         -0.8120     2.0220    -2.0980 c3         1 UDA       0.302600
     39 C19         -0.2030     2.9250    -3.1760 c3         1 UDA      -0.105100
     40 O13         -2.1530     2.3140    -1.8840 os         1 UDA      -0.575200
     41 P3          -3.4090     2.0130    -2.9570 p5         1 UDA       1.346900
     42 O15         -3.8970     0.5730    -2.6080 o          1 UDA      -0.900500
     43 O16         -4.4210     3.0800    -2.5890 o          1 UDA      -0.900500
     44 O17         -2.8890     2.0900    -4.3840 o          1 UDA      -0.900500
     45 C14         -0.0110     2.3310    -0.7840 c          1 UDA       0.908600
     46 O18          1.1990     2.0050    -0.7990 o          1 UDA      -0.843800
     47 O19         -0.5910     2.9610     0.1090 o          1 UDA      -0.843800
     48 HN1         -2.4690     0.1340     0.4160 hn         1 UDA       0.422500
     49 H6          -1.8080     3.2170     4.0160 h4         1 UDA       0.091000
     50 H7          -3.7340     3.5590     2.5420 ha         1 UDA       0.116000
     51 H3          -0.3580     2.0710     4.8480 h2         1 UDA       0.012700
     52 H4           2.9040     1.3770     4.6170 h1         1 UDA       0.052700
     53 H5           1.8040    -1.0330     5.4080 h1         1 UDA       0.050700
     54 H121         2.0390    -0.7340     2.5990 h1         1 UDA       0.047700
     55 H122         3.4360    -0.8710     3.6770 h1         1 UDA       0.047700
     56 H14          0.7750     0.4430     7.0410 ho         1 UDA       0.380000
     57 H10          1.7970    -3.0340    -2.2650 h2         1 UDA       0.064700
     58 H18          0.5220    -1.3750    -3.4200 h1         1 UDA       0.040700
     59 H13         -0.1400    -0.1100    -0.7320 h1         1 UDA       0.094700
     60 H20         -1.9030    -1.5760    -2.7300 h1         1 UDA       0.008700
     61 H16         -0.9610    -2.4240     0.0420 h1         1 UDA       0.080700
     62 H171        -3.2250    -3.1830    -0.6230 h1         1 UDA       0.016700
     63 H172        -2.5570    -3.9090    -2.0880 h1         1 UDA       0.016700
     64 HN3          1.8760     0.5370    -1.7270 hn         1 UDA       0.408500
     65 H22         -3.2230    -0.1320    -1.6860 ho         1 UDA       0.539000
     66 H24         -2.7370    -5.3630    -0.2220 ho         1 UDA       0.333000
     67 H81          4.9320     0.3730    -3.5490 hc         1 UDA       0.045700
     68 H82          3.6710     1.6030    -3.5750 hc         1 UDA       0.045700
     69 H83          4.2040     0.9310    -2.0300 hc         1 UDA       0.045700
     70 H191        -0.7170     2.7820    -4.1230 hc         1 UDA       0.020367
     71 H192        -0.3030     3.9750    -2.8910 hc         1 UDA       0.020367
     72 H193         0.8580     2.7060    -3.2950 hc         1 UDA       0.020367
     73 O11         -1.0060    -0.1070     5.7760 oh         1 UDA      -0.618800
     74 C7           2.9490    -0.3790    -3.2170 c          1 UDA       0.678100
     75 H11         -1.2550    -1.0280     5.9000 ho         1 UDA       0.387000
     76 H9          -0.1490    -0.8450     4.0410 h1         1 UDA       0.121700
@<TRIPOS>BOND
     1     1     2 1   
     2     1     6 1   
     3     1     7 2   
     4     2     3 1   
     5     2    48 1   
     6     3     4 1   
     7     3     8 2   
     8     4     5 1   
     9     4    10 1   
    10     5     6 2   
    11     5    49 1   
    12     6    50 1   
    13     9    10 1   
    14     9    13 1   
    15     9    73 1   
    16     9    76 1   
    17    10    11 1   
    18    10    51 1   
    19    11    12 1   
    20    12    13 1   
    21    12    14 1   
    22    12    52 1   
    23    13    15 1   
    24    13    53 1   
    25    14    16 1   
    26    14    54 1   
    27    14    55 1   
    28    15    56 1   
    29    16    17 1   
    30    17    18 1   
    31    17    19 1   
    32    17    20 1   
    33    20    21 1   
    34    21    22 1   
    35    21    23 1   
    36    21    24 1   
    37    22    25 1   
    38    25    26 1   
    39    25    34 1   
    40    25    57 1   
    41    26    27 1   
    42    26    31 1   
    43    26    58 1   
    44    27    28 1   
    45    27    32 1   
    46    27    59 1   
    47    28    29 1   
    48    28    33 1   
    49    28    60 1   
    50    29    30 1   
    51    29    34 1   
    52    29    61 1   
    53    30    35 1   
    54    30    62 1   
    55    30    63 1   
    56    31    64 1   
    57    31    74 1   
    58    32    38 1   
    59    33    65 1   
    60    35    66 1   
    61    36    74 2   
    62    37    67 1   
    63    37    68 1   
    64    37    69 1   
    65    37    74 1   
    66    38    39 1   
    67    38    40 1   
    68    38    45 1   
    69    39    70 1   
    70    39    71 1   
    71    39    72 1   
    72    40    41 1   
    73    41    42 1   
    74    41    43 1   
    75    41    44 1   
    76    45    46 1   
    77    45    47 1   
    78    73    75 1   
@<TRIPOS>SUBSTRUCTURE
     1 UDA         1 TEMP              0 ****  ****    0 ROOT
