@<TRIPOS>MOLECULE
UDB
   61    62     1     0     0
SMALL
No Charge or Current Charge


@<TRIPOS>ATOM
      1 C           -1.4910    -0.2110    -0.9910 c          1 UDB       0.594100
      2 N            0.9560     0.1940    -1.0530 ns         1 UDB      -0.489900
      3 O           -1.2900    -1.1980    -1.6960 o          1 UDB      -0.603100
      4 F1           6.8020     0.6850     2.3320 f          1 UDB      -0.171500
      5 F2           7.4260    -2.5270    -1.1160 f          1 UDB      -0.171500
      6 CA          -0.3530     0.8680    -0.8460 c3         1 UDB       0.052700
      7 CB          -0.5180     2.1180    -1.8020 c3         1 UDB      -0.044000
      8 CAA         -1.8530     2.8670    -1.5470 c3         1 UDB      -0.089100
      9 CAC          0.6370     3.1330    -1.5620 c3         1 UDB      -0.089100
     10 CAD         -0.4850     1.6790    -3.2940 c3         1 UDB      -0.089100
     11 CAG          2.0740     0.3650    -0.2690 c          1 UDB       0.658100
     12 OAH          2.0880     1.1110     0.6980 o          1 UDB      -0.627100
     13 NAI          3.1420    -0.4010    -0.7040 ns         1 UDB      -0.157000
     14 CAJ          4.4710    -0.5430    -0.2240 ca         1 UDB       0.058000
     15 CAK          4.9910     0.1810     0.8710 ca         1 UDB      -0.225000
     16 CAL          6.3170    -0.0140     1.2830 ca         1 UDB       0.230000
     17 CAM          7.1440    -0.9260     0.6190 ca         1 UDB      -0.232000
     18 CAN          6.6360    -1.6450    -0.4680 ca         1 UDB       0.230000
     19 CAP          5.3110    -1.4560    -0.8880 ca         1 UDB      -0.225000
     20 NAS         -2.7650    -0.0390    -0.3680 n          1 UDB      -0.377800
     21 CAT         -2.9500     0.7950     0.8720 c3         1 UDB       0.025000
     22 CAU         -4.2130     1.6920     0.9440 c          1 UDB       0.580100
     23 OAV         -4.9530     1.9080    -0.0090 o          1 UDB      -0.557100
     24 NAW         -4.4250     2.2830     2.1870 ns         1 UDB      -0.395400
     25 OAX         -5.6760     2.9480     2.4910 oh         1 UDB      -0.416100
     26 CAY         -3.8650    -1.0000    -0.6820 c3         1 UDB       0.096000
     27 CAZ         -4.1140    -2.0870     0.3950 c5         1 UDB      -0.089700
     28 CBA         -5.1360    -3.1710    -0.0260 c5         1 UDB      -0.076400
     29 CBB         -5.0170    -4.1970     1.1370 c5         1 UDB      -0.079400
     30 CBC         -3.5360    -4.0780     1.6250 c5         1 UDB      -0.079400
     31 CBD         -2.9010    -3.0000     0.7030 c5         1 UDB      -0.076400
     32 HN           1.0190    -0.4850    -1.8030 hn         1 UDB       0.319500
     33 HA          -0.3590     1.2230     0.1880 h1         1 UDB       0.080700
     34 HAA         -1.9300     3.1960    -0.5040 hc         1 UDB       0.041589
     35 HAAA        -1.9250     3.7610    -2.1780 hc         1 UDB       0.041589
     36 HAAB        -2.7190     2.2390    -1.7850 hc         1 UDB       0.041589
     37 HAC          1.6100     2.7090    -1.8350 hc         1 UDB       0.041589
     38 HACA         0.4970     4.0380    -2.1660 hc         1 UDB       0.041589
     39 HACB         0.6790     3.4360    -0.5090 hc         1 UDB       0.041589
     40 HAD         -1.3080     0.9930    -3.5260 hc         1 UDB       0.041589
     41 HADA        -0.5810     2.5470    -3.9570 hc         1 UDB       0.041589
     42 HADB         0.4570     1.1760    -3.5430 hc         1 UDB       0.041589
     43 HNAI         2.9450    -0.9660    -1.5190 hn         1 UDB       0.155000
     44 HAK          4.3890     0.9010     1.4140 ha         1 UDB       0.150500
     45 HAM          8.1700    -1.0730     0.9420 ha         1 UDB       0.152000
     46 HAP          4.9390    -2.0270    -1.7350 ha         1 UDB       0.150500
     47 HAT         -2.9780     0.1240     1.7390 h1         1 UDB       0.068200
     48 HATA        -2.1080     1.4690     1.0390 h1         1 UDB       0.068200
     49 HNAW        -3.8710     1.9820     2.9880 hn         1 UDB       0.340500
     50 HOAX        -5.3950     3.8190     2.8590 ho         1 UDB       0.443000
     51 HAY         -4.7970    -0.4430    -0.8290 h1         1 UDB       0.068200
     52 HAYA        -3.6650    -1.4970    -1.6400 h1         1 UDB       0.068200
     53 HAZ         -4.4590    -1.5740     1.3010 hc         1 UDB       0.041700
     54 HBA         -6.1530    -2.7750    -0.1260 hc         1 UDB       0.048200
     55 HBAA        -4.8710    -3.6270    -0.9880 hc         1 UDB       0.048200
     56 HBB         -5.7120    -3.9520     1.9490 hc         1 UDB       0.041450
     57 HBBA        -5.2630    -5.2130     0.8060 hc         1 UDB       0.041450
     58 HBC         -3.5010    -3.7660     2.6760 hc         1 UDB       0.041450
     59 HBCA        -3.0010    -5.0320     1.5600 hc         1 UDB       0.041450
     60 HBD         -2.4880    -3.4470    -0.2100 hc         1 UDB       0.048200
     61 HBDA        -2.0840    -2.4640     1.1990 hc         1 UDB       0.048200
@<TRIPOS>BOND
     1     1     3 2   
     2     1     6 1   
     3     1    20 1   
     4     2     6 1   
     5     2    11 1   
     6     2    32 1   
     7     4    16 1   
     8     5    18 1   
     9     6     7 1   
    10     6    33 1   
    11     7     8 1   
    12     7     9 1   
    13     7    10 1   
    14     8    34 1   
    15     8    35 1   
    16     8    36 1   
    17     9    37 1   
    18     9    38 1   
    19     9    39 1   
    20    10    40 1   
    21    10    41 1   
    22    10    42 1   
    23    11    12 2   
    24    11    13 1   
    25    13    14 1   
    26    13    43 1   
    27    14    15 ar  
    28    14    19 ar  
    29    15    16 ar  
    30    15    44 1   
    31    16    17 ar  
    32    17    18 ar  
    33    17    45 1   
    34    18    19 ar  
    35    19    46 1   
    36    20    21 1   
    37    20    26 1   
    38    21    22 1   
    39    21    47 1   
    40    21    48 1   
    41    22    23 2   
    42    22    24 1   
    43    24    25 1   
    44    24    49 1   
    45    25    50 1   
    46    26    27 1   
    47    26    51 1   
    48    26    52 1   
    49    27    28 1   
    50    27    31 1   
    51    27    53 1   
    52    28    29 1   
    53    28    54 1   
    54    28    55 1   
    55    29    30 1   
    56    29    56 1   
    57    29    57 1   
    58    30    31 1   
    59    30    58 1   
    60    30    59 1   
    61    31    60 1   
    62    31    61 1   
@<TRIPOS>SUBSTRUCTURE
     1 UDB         1 TEMP              0 ****  ****    0 ROOT
