@<TRIPOS>MOLECULE
UDB
   61    62     1     0     0
SMALL
bcc


@<TRIPOS>ATOM
      1 C           -1.5290     0.3670    -1.2280 c          1 UDB       0.661100
      2 N            0.7790     1.0380    -1.4060 ns         1 UDB      -0.556900
      3 O           -1.3630    -0.5110    -2.0620 o          1 UDB      -0.603100
      4 F1           3.5070    -2.7720     3.2260 f          1 UDB      -0.136400
      5 F2           6.5650    -2.6390    -0.2960 f          1 UDB      -0.136400
      6 CA          -0.5570     1.5640    -1.2460 c3         1 UDB       0.052700
      7 CB          -0.8700     2.6150    -2.3420 c3         1 UDB      -0.044000
      8 CAA         -2.2380     3.2340    -2.0590 c3         1 UDB      -0.089100
      9 CAC          0.1910     3.7180    -2.2580 c3         1 UDB      -0.089100
     10 CAD         -0.8750     2.0310    -3.7570 c3         1 UDB      -0.089100
     11 CAG          1.3650     0.3790    -0.3750 c          1 UDB       0.792100
     12 OAH          0.8930     0.3640     0.7510 o          1 UDB      -0.627100
     13 NAI          2.5430    -0.2420    -0.7180 ns         1 UDB      -0.483100
     14 CAJ          3.3440    -1.0540     0.0700 ca         1 UDB       0.150600
     15 CAK          2.9840    -1.5100     1.3400 ca         1 UDB      -0.243000
     16 CAL          3.8630    -2.3390     2.0090 ca         1 UDB       0.194900
     17 CAM          5.0800    -2.7490     1.5030 ca         1 UDB      -0.250000
     18 CAN          5.3960    -2.2750     0.2440 ca         1 UDB       0.194900
     19 CAP          4.5700    -1.4440    -0.4810 ca         1 UDB      -0.243000
     20 NAS         -2.5000     0.2690    -0.2880 n          1 UDB      -0.444800
     21 CAT         -2.7600     1.2270     0.7520 c3         1 UDB       0.025000
     22 CAU         -4.1930     1.7510     0.6960 c          1 UDB       0.647100
     23 OAV         -4.8280     1.8560    -0.3350 o          1 UDB      -0.557100
     24 NAW         -4.6450     2.1320     1.9010 ns         1 UDB      -0.462400
     25 OAX         -5.9200     2.5830     2.0440 oh         1 UDB      -0.377100
     26 CAY         -3.2700    -0.9700    -0.1930 c3         1 UDB       0.096000
     27 CAZ         -2.7230    -1.9580     0.8290 c5         1 UDB      -0.089700
     28 CBA         -3.6420    -3.1780     0.9970 c5         1 UDB      -0.076400
     29 CBB         -2.7290    -4.3290     1.4780 c5         1 UDB      -0.079400
     30 CBC         -1.3020    -3.7530     1.4860 c5         1 UDB      -0.079400
     31 CBD         -1.3660    -2.5830     0.5100 c5         1 UDB      -0.076400
     32 HN           1.0730     0.8180    -2.3450 hn         1 UDB       0.319500
     33 HA          -0.5640     2.1010    -0.2980 h1         1 UDB       0.080700
     34 HAA         -2.2690     3.7060    -1.0740 hc         1 UDB       0.041589
     35 HAAA        -2.4530     4.0090    -2.7960 hc         1 UDB       0.041589
     36 HAAB        -3.0450     2.5030    -2.1040 hc         1 UDB       0.041589
     37 HAC          1.1840     3.3580    -2.5270 hc         1 UDB       0.041589
     38 HACA        -0.0640     4.5290    -2.9410 hc         1 UDB       0.041589
     39 HACB         0.2470     4.1370    -1.2510 hc         1 UDB       0.041589
     40 HAD         -1.6580     1.2890    -3.8990 hc         1 UDB       0.041589
     41 HADA        -1.0480     2.8350    -4.4740 hc         1 UDB       0.041589
     42 HADB         0.0770     1.5700    -4.0310 hc         1 UDB       0.041589
     43 HNAI         2.8900    -0.0800    -1.6510 hn         1 UDB       0.321500
     44 HAK          2.0500    -1.2360     1.8020 ha         1 UDB       0.168500
     45 HAM          5.7430    -3.4000     2.0560 ha         1 UDB       0.170000
     46 HAP          4.8730    -1.1030    -1.4630 ha         1 UDB       0.168500
     47 HAT         -2.5480     0.7950     1.7350 h1         1 UDB       0.068200
     48 HATA        -2.1090     2.0930     0.6710 h1         1 UDB       0.068200
     49 HNAW        -4.1670     1.9140     2.7630 hn         1 UDB       0.340500
     50 HOAX        -5.8750     3.5470     1.9900 ho         1 UDB       0.404000
     51 HAY         -4.2990    -0.7150     0.0700 h1         1 UDB       0.068200
     52 HAYA        -3.3110    -1.4390    -1.1750 h1         1 UDB       0.068200
     53 HAZ         -2.6420    -1.4570     1.8020 hc         1 UDB       0.041700
     54 HBA         -4.4630    -2.9750     1.6850 hc         1 UDB       0.048200
     55 HBAA        -4.0940    -3.4320     0.0340 hc         1 UDB       0.048200
     56 HBB         -3.0200    -4.7010     2.4610 hc         1 UDB       0.041450
     57 HBBA        -2.7940    -5.1750     0.7910 hc         1 UDB       0.041450
     58 HBC         -1.0500    -3.3820     2.4830 hc         1 UDB       0.041450
     59 HBCA        -0.5450    -4.4940     1.2220 hc         1 UDB       0.041450
     60 HBD         -1.3630    -2.9470    -0.5210 hc         1 UDB       0.048200
     61 HBDA        -0.5370    -1.8830     0.6170 hc         1 UDB       0.048200
@<TRIPOS>BOND
     1     1     3 2   
     2     1     6 1   
     3     1    20 1   
     4     2     6 1   
     5     2    11 1   
     6     2    32 1   
     7     4    16 1   
     8     5    18 1   
     9     6     7 1   
    10     6    33 1   
    11     7     8 1   
    12     7     9 1   
    13     7    10 1   
    14     8    34 1   
    15     8    35 1   
    16     8    36 1   
    17     9    37 1   
    18     9    38 1   
    19     9    39 1   
    20    10    40 1   
    21    10    41 1   
    22    10    42 1   
    23    11    12 2   
    24    11    13 1   
    25    13    14 1   
    26    13    43 1   
    27    14    15 ar  
    28    14    19 ar  
    29    15    16 ar  
    30    15    44 1   
    31    16    17 ar  
    32    17    18 ar  
    33    17    45 1   
    34    18    19 ar  
    35    19    46 1   
    36    20    21 1   
    37    20    26 1   
    38    21    22 1   
    39    21    47 1   
    40    21    48 1   
    41    22    23 2   
    42    22    24 1   
    43    24    25 1   
    44    24    49 1   
    45    25    50 1   
    46    26    27 1   
    47    26    51 1   
    48    26    52 1   
    49    27    28 1   
    50    27    31 1   
    51    27    53 1   
    52    28    29 1   
    53    28    54 1   
    54    28    55 1   
    55    29    30 1   
    56    29    56 1   
    57    29    57 1   
    58    30    31 1   
    59    30    58 1   
    60    30    59 1   
    61    31    60 1   
    62    31    61 1   
@<TRIPOS>SUBSTRUCTURE
     1 UDB         1 TEMP              0 ****  ****    0 ROOT
