@<TRIPOS>MOLECULE
UDC
   46    46     1     0     0
SMALL
No Charge or Current Charge


@<TRIPOS>ATOM
      1 C1           4.0910     0.1350    -4.9270 c6         1 UDC       0.373300
      2 O1           5.1660    -0.5920    -5.5200 oh         1 UDC      -0.688000
      3 C2           3.8380    -0.2730    -3.4500 c6         1 UDC       0.082700
      4 N2           5.0560    -0.0620    -2.6280 ns         1 UDC      -0.489900
      5 C3           3.3140    -1.7410    -3.3220 c6         1 UDC       0.153300
      6 O3           3.0020    -1.9230    -1.8970 os         1 UDC      -0.483000
      7 C4           2.1230    -2.0290    -4.3350 c6         1 UDC       0.155300
      8 O4           1.8270    -3.4440    -4.4860 oh         1 UDC      -0.809000
      9 C5           2.4560    -1.4660    -5.7600 c6         1 UDC       0.166300
     10 O5           2.9150    -0.0900    -5.7090 os         1 UDC      -0.476000
     11 C6           1.2260    -1.5180    -6.7320 c3         1 UDC       0.177600
     12 O6           0.1480    -0.6340    -6.3610 oh         1 UDC      -0.702000
     13 C7           5.1060     0.5590    -1.4030 c          1 UDC       0.604100
     14 O7           4.1330     1.0930    -0.8900 o          1 UDC      -0.598100
     15 C8           6.4770     0.5450    -0.7390 c3         1 UDC      -0.181100
     16 CBN          2.5730    -3.1880    -1.2980 c3         1 UDC       0.045000
     17 CBO          1.0570    -3.4710    -1.6160 c          1 UDC       0.730000
     18 OBP          0.2350    -2.5900    -1.3960 o          1 UDC      -0.699500
     19 OBQ          0.7890    -4.4390    -2.3150 o          1 UDC      -0.699500
     20 CBR          3.5540    -4.3170    -1.7640 c3         1 UDC      -0.102100
     21 CBS          2.6590    -2.9510     0.2530 c3         1 UDC       0.179300
     22 OBT          2.2430    -4.1130     0.9890 oh         1 UDC      -0.697000
     23 CBU          4.0630    -2.5600     0.8110 c3         1 UDC       0.113600
     24 OBV          4.8380    -3.7410     1.1160 oh         1 UDC      -0.674000
     25 H1           4.3290     1.2100    -4.9510 h2         1 UDC       0.055700
     26 HO1          5.1890    -0.2930    -6.4530 ho         1 UDC       0.440000
     27 H2           3.0470     0.3920    -3.0760 h1         1 UDC       0.111700
     28 HN2          5.9260    -0.4530    -2.9710 hn         1 UDC       0.310500
     29 H3           4.1480    -2.4080    -3.5830 h1         1 UDC       0.039700
     30 H4           1.2350    -1.4940    -3.9640 h1         1 UDC       0.062700
     31 HO4          1.3970    -3.7820    -3.6410 ho         1 UDC       0.599000
     32 H5           3.2470    -2.0860    -6.2070 h1         1 UDC       0.044700
     33 H61          1.5870    -1.2570    -7.7360 h1         1 UDC       0.022200
     34 H62          0.8630    -2.5530    -6.7880 h1         1 UDC       0.022200
     35 HO6         -0.5290    -0.6960    -7.0740 ho         1 UDC       0.487000
     36 H81          7.2120     0.9780    -1.4270 hc         1 UDC       0.050700
     37 H82          6.4830     1.0540     0.2310 hc         1 UDC       0.050700
     38 H83          6.8220    -0.4920    -0.6540 hc         1 UDC       0.050700
     39 HBR          3.3780    -5.2430    -1.2030 hc         1 UDC       0.036367
     40 HBRA         3.4390    -4.5590    -2.8240 hc         1 UDC       0.036367
     41 HBRB         4.5980    -4.0210    -1.6090 hc         1 UDC       0.036367
     42 HBS          1.9890    -2.1090     0.4800 h1         1 UDC       0.097700
     43 HOBT         3.1130    -4.4750     1.2940 ho         1 UDC       0.490000
     44 HBU          4.5940    -1.9270     0.0880 h1         1 UDC       0.023700
     45 HBUA         3.9240    -1.9640     1.7220 h1         1 UDC       0.023700
     46 HOBV         5.7340    -3.4360     1.3870 ho         1 UDC       0.427000
@<TRIPOS>BOND
     1     1     2 1   
     2     1     3 1   
     3     1    10 1   
     4     1    25 1   
     5     2    26 1   
     6     3     4 1   
     7     3     5 1   
     8     3    27 1   
     9     4    13 1   
    10     4    28 1   
    11     5     6 1   
    12     5     7 1   
    13     5    29 1   
    14     6    16 1   
    15     7     8 1   
    16     7     9 1   
    17     7    30 1   
    18     8    31 1   
    19     9    10 1   
    20     9    11 1   
    21     9    32 1   
    22    11    12 1   
    23    11    33 1   
    24    11    34 1   
    25    12    35 1   
    26    13    14 2   
    27    13    15 1   
    28    15    36 1   
    29    15    37 1   
    30    15    38 1   
    31    16    17 1   
    32    16    20 1   
    33    16    21 1   
    34    17    18 1   
    35    17    19 1   
    36    20    39 1   
    37    20    40 1   
    38    20    41 1   
    39    21    22 1   
    40    21    23 1   
    41    21    42 1   
    42    22    43 1   
    43    23    24 1   
    44    23    44 1   
    45    23    45 1   
    46    24    46 1   
@<TRIPOS>SUBSTRUCTURE
     1 UDC         1 TEMP              0 ****  ****    0 ROOT
