@<TRIPOS>MOLECULE
UDC
   46    46     1     0     0
SMALL
bcc


@<TRIPOS>ATOM
      1 C1           4.2130    -0.1090    -4.8510 c6         1 UDC       0.326900
      2 O1           5.3030    -0.9280    -5.1420 oh         1 UDC      -0.625800
      3 C2           3.7710    -0.4010    -3.4190 c6         1 UDC       0.082700
      4 N2           4.8580    -0.1740    -2.5050 ns         1 UDC      -0.556900
      5 C3           3.1680    -1.8080    -3.2890 c6         1 UDC       0.130100
      6 O3           2.7150    -1.8840    -1.9590 os         1 UDC      -0.436600
      7 C4           2.0420    -1.9510    -4.3320 c6         1 UDC       0.132100
      8 O4           1.5400    -3.2490    -4.4460 oh         1 UDC      -0.686800
      9 C5           2.5660    -1.5770    -5.7240 c6         1 UDC       0.143100
     10 O5           3.1480    -0.2840    -5.7330 os         1 UDC      -0.429600
     11 C6           1.4990    -1.5950    -6.8000 c3         1 UDC       0.154400
     12 O6           0.4650    -0.6980    -6.4690 oh         1 UDC      -0.579800
     13 C7           4.7960     0.6660    -1.4530 c          1 UDC       0.671100
     14 O7           3.8190     1.3550    -1.1980 o          1 UDC      -0.598100
     15 C8           6.0380     0.7170    -0.5980 c3         1 UDC      -0.181100
     16 CBN          2.4900    -3.1090    -1.2460 c3         1 UDC       0.021800
     17 CBO          0.9330    -3.2470    -1.2110 c          1 UDC       0.940600
     18 OBP          0.3210    -2.7360    -0.2680 o          1 UDC      -0.804800
     19 OBQ          0.3950    -3.8170    -2.2010 o          1 UDC      -0.804800
     20 CBR          3.1700    -4.3280    -1.8520 c3         1 UDC      -0.102100
     21 CBS          3.0200    -2.8230     0.1780 c3         1 UDC       0.156100
     22 OBT          2.6540    -3.8450     1.0750 oh         1 UDC      -0.574800
     23 CBU          4.5290    -2.5800     0.2730 c3         1 UDC       0.090400
     24 OBV          5.2090    -3.8220     0.3680 oh         1 UDC      -0.611800
     25 H1           4.4840     0.9500    -4.9340 h2         1 UDC       0.055700
     26 HO1          5.7450    -0.6030    -5.9350 ho         1 UDC       0.401000
     27 H2           2.9900     0.3230    -3.1770 h1         1 UDC       0.111700
     28 HN2          5.6950    -0.7180    -2.6390 hn         1 UDC       0.310500
     29 H3           3.9390    -2.5620    -3.4950 h1         1 UDC       0.039700
     30 H4           1.2550    -1.2340    -4.0460 h1         1 UDC       0.062700
     31 HO4          1.0840    -3.5010    -3.5950 ho         1 UDC       0.500000
     32 H5           3.3120    -2.3310    -6.0150 h1         1 UDC       0.044700
     33 H61          1.9740    -1.3280    -7.7540 h1         1 UDC       0.022200
     34 H62          1.1360    -2.6220    -6.9040 h1         1 UDC       0.022200
     35 HO6         -0.2510    -0.8240    -7.0970 ho         1 UDC       0.388000
     36 H81          6.4390     1.7310    -0.6020 hc         1 UDC       0.050700
     37 H82          5.7740     0.4790     0.4330 hc         1 UDC       0.050700
     38 H83          6.8240     0.0350    -0.9160 hc         1 UDC       0.050700
     39 HBR          3.0020    -5.1920    -1.2080 hc         1 UDC       0.036367
     40 HBRA         2.7810    -4.5780    -2.8340 hc         1 UDC       0.036367
     41 HBRB         4.2470    -4.1950    -1.9480 hc         1 UDC       0.036367
     42 HBS          2.5330    -1.9010     0.5060 h1         1 UDC       0.097700
     43 HOBT         3.4110    -4.4420     1.1240 ho         1 UDC       0.391000
     44 HBU          4.8760    -2.0050    -0.5890 h1         1 UDC       0.023700
     45 HBUA         4.7210    -1.9740     1.1650 h1         1 UDC       0.023700
     46 HOBV         5.9820    -3.7070     0.9250 ho         1 UDC       0.388000
@<TRIPOS>BOND
     1     1     2 1   
     2     1     3 1   
     3     1    10 1   
     4     1    25 1   
     5     2    26 1   
     6     3     4 1   
     7     3     5 1   
     8     3    27 1   
     9     4    13 1   
    10     4    28 1   
    11     5     6 1   
    12     5     7 1   
    13     5    29 1   
    14     6    16 1   
    15     7     8 1   
    16     7     9 1   
    17     7    30 1   
    18     8    31 1   
    19     9    10 1   
    20     9    11 1   
    21     9    32 1   
    22    11    12 1   
    23    11    33 1   
    24    11    34 1   
    25    12    35 1   
    26    13    14 2   
    27    13    15 1   
    28    15    36 1   
    29    15    37 1   
    30    15    38 1   
    31    16    17 1   
    32    16    20 1   
    33    16    21 1   
    34    17    18 1   
    35    17    19 1   
    36    20    39 1   
    37    20    40 1   
    38    20    41 1   
    39    21    22 1   
    40    21    23 1   
    41    21    42 1   
    42    22    43 1   
    43    23    24 1   
    44    23    44 1   
    45    23    45 1   
    46    24    46 1   
@<TRIPOS>SUBSTRUCTURE
     1 UDC         1 TEMP              0 ****  ****    0 ROOT
