@<TRIPOS>MOLECULE
UDD
   53    56     1     0     0
SMALL
No Charge or Current Charge


@<TRIPOS>ATOM
      1 CAJ         -1.5730     0.3290    -1.1830 ca         1 UDD      -0.198000
      2 CAL         -2.1100    -0.9290    -1.5010 ca         1 UDD      -0.014000
      3 CAZ         -3.0840    -1.5170    -0.6670 ca         1 UDD      -0.254300
      4 CBF         -3.6810    -2.8850    -1.0120 c3         1 UDD       0.363300
      5 FAB         -4.0520    -3.5760     0.0910 f          1 UDD      -0.117000
      6 FAC         -4.7800    -2.7580    -1.7880 f          1 UDD      -0.117000
      7 FAA         -2.8100    -3.6720    -1.6840 f          1 UDD      -0.117000
      8 CAM         -3.5300    -0.8090     0.4700 ca         1 UDD      -0.014000
      9 CAK         -2.9860     0.4480     0.7780 ca         1 UDD      -0.198000
     10 CAX         -1.9870     1.0100    -0.0300 ca         1 UDD       0.368000
     11 NBE         -1.4510     2.2790     0.2740 nh         1 UDD      -0.863200
     12 CAY         -1.9660     3.4630    -0.3720 ca         1 UDD       0.219000
     13 CAI         -3.0000     3.3620    -1.3330 ca         1 UDD      -0.073000
     14 CAG         -3.4950     4.5250    -1.9510 ca         1 UDD      -0.160000
     15 CAH         -2.9590     5.7740    -1.6060 ca         1 UDD       0.336900
     16 NAV         -1.9750     5.9160    -0.6920 nb         1 UDD      -0.656000
     17 CAP         -1.5000     4.7890    -0.0970 ca         1 UDD       0.328900
     18 CBC         -0.3670     2.4040     1.3160 c6         1 UDD       0.254500
     19 CAS         -0.2490     1.2310     2.3300 c6         1 UDD      -0.099900
     20 CAU          0.4490    -0.0260     1.7580 c6         1 UDD       0.218800
     21 CAR          1.0230     2.6660     0.6810 c6         1 UDD      -0.099900
     22 CAT          1.6660     1.3860     0.1060 c6         1 UDD       0.218800
     23 NBD          1.7580     0.3160     1.1350 nh         1 UDD      -0.767300
     24 CBB          2.7650    -0.6610     1.0520 ca         1 UDD       0.646900
     25 NAW          3.0530    -1.2590     2.2180 nb         1 UDD      -0.762000
     26 CAQ          4.0130    -2.2060     2.2230 ca         1 UDD       0.449900
     27 CBA          4.7210    -2.5920     1.0740 ca         1 UDD      -0.327300
     28 CBG          5.7810    -3.6790     1.1840 c3         1 UDD       0.373300
     29 FAE          5.2170    -4.8990     1.3310 f          1 UDD      -0.116333
     30 FAF          6.5820    -3.7420     0.0970 f          1 UDD      -0.116333
     31 FAD          6.5880    -3.4840     2.2510 f          1 UDD      -0.116333
     32 CAN          4.4090    -1.9700    -0.1490 ca         1 UDD       0.016000
     33 CAO          3.4130    -0.9870    -0.1500 ca         1 UDD      -0.244000
     34 HAJ         -0.8370     0.7800    -1.8400 ha         1 UDD       0.121000
     35 HAL         -1.7710    -1.4390    -2.4010 ha         1 UDD       0.126500
     36 HAM         -4.3020    -1.2260     1.1140 ha         1 UDD       0.126500
     37 HAK         -3.3430     0.9920     1.6470 ha         1 UDD       0.121000
     38 HBC         -0.6150     3.2750     1.9410 h1         1 UDD       0.057700
     39 HAI         -3.4270     2.4010    -1.6050 ha         1 UDD       0.133000
     40 HAP         -0.7120     4.9680     0.6310 h4         1 UDD       0.028100
     41 HAG         -4.2880     4.4630    -2.6910 ha         1 UDD       0.132000
     42 HAH         -3.3280     6.6870    -2.0720 h4         1 UDD       0.026100
     43 HAS1         0.3460     1.5800     3.1850 hc         1 UDD       0.062950
     44 HAS2        -1.2270     0.9710     2.7510 hc         1 UDD       0.062950
     45 HAR1         0.9590     3.4280    -0.1050 hc         1 UDD       0.062950
     46 HAR2         1.6920     3.0780     1.4490 hc         1 UDD       0.062950
     47 HAU1         0.5770    -0.7420     2.5830 h1         1 UDD       0.055700
     48 HAU2        -0.1970    -0.5200     1.0200 h1         1 UDD       0.055700
     49 HAT1         1.0870     1.0340    -0.7580 h1         1 UDD       0.055700
     50 HAT2         2.6690     1.6500    -0.2600 h1         1 UDD       0.055700
     51 HAO          3.1430    -0.4980    -1.0800 ha         1 UDD       0.127000
     52 HAQ          4.2180    -2.6730     3.1860 h4         1 UDD       0.033100
     53 HAN          4.9160    -2.2390    -1.0750 ha         1 UDD       0.129000
@<TRIPOS>BOND
     1     1     2 ar  
     2     1    10 ar  
     3     1    34 1   
     4     2     3 ar  
     5     2    35 1   
     6     3     4 1   
     7     3     8 ar  
     8     4     5 1   
     9     4     6 1   
    10     4     7 1   
    11     8     9 ar  
    12     8    36 1   
    13     9    10 ar  
    14     9    37 1   
    15    10    11 1   
    16    11    12 1   
    17    11    18 1   
    18    12    13 ar  
    19    12    17 ar  
    20    13    14 ar  
    21    13    39 1   
    22    14    15 ar  
    23    14    41 1   
    24    15    16 ar  
    25    15    42 1   
    26    16    17 ar  
    27    17    40 1   
    28    18    19 1   
    29    18    21 1   
    30    18    38 1   
    31    19    20 1   
    32    19    43 1   
    33    19    44 1   
    34    20    23 1   
    35    20    47 1   
    36    20    48 1   
    37    21    22 1   
    38    21    45 1   
    39    21    46 1   
    40    22    23 1   
    41    22    49 1   
    42    22    50 1   
    43    23    24 1   
    44    24    25 ar  
    45    24    33 ar  
    46    25    26 ar  
    47    26    27 ar  
    48    26    52 1   
    49    27    28 1   
    50    27    32 ar  
    51    28    29 1   
    52    28    30 1   
    53    28    31 1   
    54    32    33 ar  
    55    32    53 1   
    56    33    51 1   
@<TRIPOS>SUBSTRUCTURE
     1 UDD         1 TEMP              0 ****  ****    0 ROOT
