@<TRIPOS>MOLECULE
UDD
   53    56     1     0     0
SMALL
bcc


@<TRIPOS>ATOM
      1 CAJ         -3.6050     0.5760    -0.9940 ca         1 UDD      -0.216000
      2 CAL         -4.8800     0.0540    -1.0850 ca         1 UDD      -0.032000
      3 CAZ         -5.5140    -0.4860     0.0270 ca         1 UDD      -0.254300
      4 CBF         -6.8690    -1.0930    -0.0770 c3         1 UDD       0.727200
      5 FAB         -6.8190    -2.4270    -0.2510 f          1 UDD      -0.238300
      6 FAC         -7.6040    -0.8910     1.0260 f          1 UDD      -0.238300
      7 FAA         -7.5700    -0.6050    -1.1090 f          1 UDD      -0.238300
      8 CAM         -4.8280    -0.4980     1.2360 ca         1 UDD      -0.032000
      9 CAK         -3.5510     0.0190     1.3390 ca         1 UDD      -0.216000
     10 CAX         -2.8980     0.5750     0.2230 ca         1 UDD       0.229600
     11 NBE         -1.6290     1.1090     0.3070 nh         1 UDD      -0.586400
     12 CAY         -1.1510     1.8560    -0.7960 ca         1 UDD       0.015300
     13 CAI         -0.4480     1.2600    -1.8340 ca         1 UDD      -0.091000
     14 CAG         -0.0180     2.0470    -2.8900 ca         1 UDD      -0.243300
     15 CAH         -0.3080     3.4030    -2.8650 ca         1 UDD       0.402200
     16 NAV         -0.9940     3.9820    -1.8860 nb         1 UDD      -0.656000
     17 CAP         -1.4110     3.2200    -0.8850 ca         1 UDD       0.394200
     18 CBC         -0.9210     1.1190     1.5960 c6         1 UDD       0.254500
     19 CAS         -0.3720    -0.2620     1.9560 c6         1 UDD      -0.099900
     20 CAU          0.8250    -0.6510     1.1100 c6         1 UDD       0.218800
     21 CAR          0.2370     2.1070     1.6840 c6         1 UDD      -0.099900
     22 CAT          1.5120     1.7190     0.9450 c6         1 UDD       0.218800
     23 NBD          1.8930     0.3370     1.1790 nh         1 UDD      -0.767300
     24 CBB          3.1800    -0.0580     0.9790 ca         1 UDD       0.712200
     25 NAW          3.4440    -1.3650     1.0760 nb         1 UDD      -0.762000
     26 CAQ          4.6820    -1.8020     0.9290 ca         1 UDD       0.515200
     27 CBA          5.7610    -0.9780     0.6630 ca         1 UDD      -0.392600
     28 CBG          7.1440    -1.4920     0.4950 c3         1 UDD       0.737200
     29 FAE          7.2190    -2.8210     0.6190 f          1 UDD      -0.237633
     30 FAF          7.6550    -1.1820    -0.7090 f          1 UDD      -0.237633
     31 FAD          7.9910    -0.9690     1.3990 f          1 UDD      -0.237633
     32 CAN          5.4980     0.3880     0.5370 ca         1 UDD      -0.002000
     33 CAO          4.2190     0.8580     0.6860 ca         1 UDD      -0.327300
     34 HAJ         -3.1630     0.9880    -1.8890 ha         1 UDD       0.139000
     35 HAL         -5.3720     0.0800    -2.0490 ha         1 UDD       0.144500
     36 HAM         -5.2820    -0.9070     2.1300 ha         1 UDD       0.144500
     37 HAK         -3.0790    -0.0120     2.3090 ha         1 UDD       0.139000
     38 HBC         -1.6390     1.4260     2.3620 h1         1 UDD       0.057700
     39 HAI         -0.2400     0.1970    -1.8140 ha         1 UDD       0.151000
     40 HAP         -1.9820     3.7080    -0.1000 h4         1 UDD       0.028100
     41 HAG          0.5350     1.6210    -3.7150 ha         1 UDD       0.150000
     42 HAH          0.0220     4.0470    -3.6730 h4         1 UDD       0.026100
     43 HAS1        -0.0870    -0.2530     3.0110 hc         1 UDD       0.062950
     44 HAS2        -1.1310    -1.0370     1.8400 hc         1 UDD       0.062950
     45 HAR1        -0.0560     3.1090     1.3690 hc         1 UDD       0.062950
     46 HAR2         0.4710     2.1840     2.7480 hc         1 UDD       0.062950
     47 HAU1         1.2120    -1.6040     1.4570 h1         1 UDD       0.055700
     48 HAU2         0.5160    -0.8050     0.0690 h1         1 UDD       0.055700
     49 HAT1         1.4210     1.9170    -0.1290 h1         1 UDD       0.055700
     50 HAT2         2.2940     2.3780     1.3190 h1         1 UDD       0.055700
     51 HAO          4.0360     1.9140     0.5610 ha         1 UDD       0.145000
     52 HAQ          4.8090    -2.8750     1.0270 h4         1 UDD       0.033100
     53 HAN          6.2900     1.0910     0.3110 ha         1 UDD       0.147000
@<TRIPOS>BOND
     1     1     2 ar  
     2     1    10 ar  
     3     1    34 1   
     4     2     3 ar  
     5     2    35 1   
     6     3     4 1   
     7     3     8 ar  
     8     4     5 1   
     9     4     6 1   
    10     4     7 1   
    11     8     9 ar  
    12     8    36 1   
    13     9    10 ar  
    14     9    37 1   
    15    10    11 1   
    16    11    12 1   
    17    11    18 1   
    18    12    13 ar  
    19    12    17 ar  
    20    13    14 ar  
    21    13    39 1   
    22    14    15 ar  
    23    14    41 1   
    24    15    16 ar  
    25    15    42 1   
    26    16    17 ar  
    27    17    40 1   
    28    18    19 1   
    29    18    21 1   
    30    18    38 1   
    31    19    20 1   
    32    19    43 1   
    33    19    44 1   
    34    20    23 1   
    35    20    47 1   
    36    20    48 1   
    37    21    22 1   
    38    21    45 1   
    39    21    46 1   
    40    22    23 1   
    41    22    49 1   
    42    22    50 1   
    43    23    24 1   
    44    24    25 ar  
    45    24    33 ar  
    46    25    26 ar  
    47    26    27 ar  
    48    26    52 1   
    49    27    28 1   
    50    27    32 ar  
    51    28    29 1   
    52    28    30 1   
    53    28    31 1   
    54    32    33 ar  
    55    32    53 1   
    56    33    51 1   
@<TRIPOS>SUBSTRUCTURE
     1 UDD         1 TEMP              0 ****  ****    0 ROOT
