@<TRIPOS>MOLECULE
UDE
   60    63     1     0     0
SMALL
No Charge or Current Charge


@<TRIPOS>ATOM
      1 N1          -1.8580    13.1100    12.0270 n          1 UDE      -0.331000
      2 C8          -2.4830     4.2060    12.7980 c          1 UDE       0.652100
      3 N2          -0.4140     8.5180    12.3530 na         1 UDE       0.125800
      4 C9          -3.9030     3.0280    14.5840 ca         1 UDE      -0.026000
      5 O1          -2.3190    11.3970    13.6410 os         1 UDE      -0.442000
      6 C1          -2.6190    13.9720    11.2190 c          1 UDE       0.616000
      7 O5          -3.3230     4.9110    12.2570 o          1 UDE      -0.629100
      8 C5          -0.8030     9.8880    12.7000 c5         1 UDE       0.049300
      9 C6          -0.3270     6.4530    11.7650 cc         1 UDE       0.156300
     10 N3           0.8960     8.1200    12.4250 nd         1 UDE      -0.192800
     11 O4          -3.4110     0.3100    18.1040 o          1 UDE      -0.543000
     12 C3          -1.9600    10.0050    13.7280 c5         1 UDE       0.152300
     13 O3          -5.9390     0.4750    18.5310 o          1 UDE      -0.543000
     14 C2          -2.3560    11.7270    12.2410 c5         1 UDE       0.349700
     15 N4           0.9410     6.8600    12.0680 nc         1 UDE      -0.353000
     16 O6          -3.6890    13.6630    10.7220 o          1 UDE      -0.569000
     17 N           -2.0890    15.2040    11.0030 ns         1 UDE      -0.465500
     18 C17         -0.6230    13.5050    12.5530 cc         1 UDE      -0.002400
     19 C18         -0.1310    14.7670    12.2950 cd         1 UDE      -0.269400
     20 C19          1.1890    15.2740    12.8320 c3         1 UDE      -0.018900
     21 C           -0.9120    15.7100    11.4550 c          1 UDE       0.587200
     22 O           -0.5610    16.8450    11.1750 o          1 UDE      -0.525000
     23 C16         -1.3920    10.7280    11.5220 c5         1 UDE      -0.137400
     24 C15         -1.2080     7.4750    11.9310 cd         1 UDE      -0.185000
     25 N5          -1.1670     4.2000    12.4010 ns         1 UDE      -0.503900
     26 N6          -2.7230     3.3390    13.8520 ns         1 UDE      -0.169000
     27 C14         -3.8080     2.0410    15.5860 ca         1 UDE      -0.063000
     28 C13         -4.9340     1.6800    16.3570 ca         1 UDE      -0.240500
     29 S           -4.7910     0.4120    17.6290 sy         1 UDE       1.126600
     30 N7          -5.0480    -0.9590    16.7720 n8         1 UDE      -1.009100
     31 C12         -6.1710     2.3140    16.1200 ca         1 UDE      -0.041000
     32 C11         -6.2720     3.2990    15.1250 ca         1 UDE      -0.107000
     33 C10         -5.1490     3.6570    14.3600 ca         1 UDE      -0.075000
     34 H1          -1.3330     5.0680    10.4890 h1         1 UDE       0.081200
     35 H2           0.3030     4.5790    10.9510 h1         1 UDE       0.081200
     36 H3           0.0780    10.4000    13.1070 h1         1 UDE       0.125700
     37 H4          -2.4640     9.8760    15.8360 h1         1 UDE       0.042700
     38 H5          -1.5060     8.5140    15.2350 h1         1 UDE       0.042700
     39 H6          -2.8260     9.4080    13.4110 h1         1 UDE       0.062700
     40 H7          -3.3810    11.6400    11.8550 h2         1 UDE       0.109700
     41 H8          -2.6390    15.8200    10.4260 hn         1 UDE       0.343500
     42 H9          -0.1410    12.7510    13.1690 h4         1 UDE       0.235000
     43 H10          1.6950    14.5140    13.4380 hc         1 UDE       0.046700
     44 H11          1.8680    15.5520    12.0160 hc         1 UDE       0.046700
     45 H12          1.0450    16.1580    13.4650 hc         1 UDE       0.046700
     46 H13         -1.9650    10.1020    10.8280 hc         1 UDE       0.087200
     47 H14         -0.6110    11.2150    10.9270 hc         1 UDE       0.087200
     48 H15         -0.3020    10.0080    16.6100 ho         1 UDE       0.519000
     49 H16         -2.2800     7.5310    11.7940 h4         1 UDE       0.184000
     50 H17         -0.5340     3.5910    12.9050 hn         1 UDE       0.311500
     51 H18         -1.9070     2.8300    14.1640 hn         1 UDE       0.153000
     52 H19         -2.8520     1.5520    15.7640 ha         1 UDE       0.129000
     53 H20         -5.7900    -1.3890    17.3190 hn         1 UDE       0.476500
     54 H21         -5.5270    -0.6100    15.9460 hn         1 UDE       0.476500
     55 H22         -7.0530     2.0510    16.7030 ha         1 UDE       0.145000
     56 H23         -7.2270     3.7890    14.9450 ha         1 UDE       0.122000
     57 H24         -5.2680     4.4250    13.6030 ha         1 UDE       0.141000
     58 C7          -0.6210     5.0400    11.3240 c3         1 UDE       0.090700
     59 C4          -1.6150     9.6070    15.1930 c3         1 UDE       0.163600
     60 O2          -0.4040    10.2410    15.6570 oh         1 UDE      -0.727000
@<TRIPOS>BOND
     1     1     6 1   
     2     1    14 1   
     3     1    18 1   
     4     2     7 2   
     5     2    25 1   
     6     2    26 1   
     7     3     8 1   
     8     3    10 1   
     9     3    24 1   
    10     4    26 1   
    11     4    27 ar  
    12     4    33 ar  
    13     5    12 1   
    14     5    14 1   
    15     6    16 2   
    16     6    17 1   
    17     8    12 1   
    18     8    23 1   
    19     8    36 1   
    20     9    15 1   
    21     9    24 2   
    22     9    58 1   
    23    10    15 2   
    24    11    29 2   
    25    12    39 1   
    26    12    59 1   
    27    13    29 2   
    28    14    23 1   
    29    14    40 1   
    30    17    21 1   
    31    17    41 1   
    32    18    19 2   
    33    18    42 1   
    34    19    20 1   
    35    19    21 1   
    36    20    43 1   
    37    20    44 1   
    38    20    45 1   
    39    21    22 2   
    40    23    46 1   
    41    23    47 1   
    42    24    49 1   
    43    25    50 1   
    44    25    58 1   
    45    26    51 1   
    46    27    28 ar  
    47    27    52 1   
    48    28    29 1   
    49    28    31 ar  
    50    29    30 1   
    51    30    53 1   
    52    30    54 1   
    53    31    32 ar  
    54    31    55 1   
    55    32    33 ar  
    56    32    56 1   
    57    33    57 1   
    58    34    58 1   
    59    35    58 1   
    60    37    59 1   
    61    38    59 1   
    62    48    60 1   
    63    59    60 1   
@<TRIPOS>SUBSTRUCTURE
     1 UDE         1 TEMP              0 ****  ****    0 ROOT
