@<TRIPOS>MOLECULE
UDE
   60    63     1     0     0
SMALL
abcg2


@<TRIPOS>ATOM
      1 N1          -2.2220    12.4740    12.3620 n          1 UDE      -0.331000
      2 C8          -2.0980     4.1070    12.7620 c          1 UDE       0.652100
      3 N2          -0.2490     8.2520    11.9740 na         1 UDE       0.125800
      4 C9          -3.7560     3.5920    14.5190 ca         1 UDE      -0.026000
      5 O1          -2.1160    10.6860    13.8560 os         1 UDE      -0.442000
      6 C1          -3.0190    13.1620    11.4790 c          1 UDE       0.616000
      7 O5          -2.8950     4.5600    11.9550 o          1 UDE      -0.629100
      8 C5          -0.7060     9.5620    12.3740 c5         1 UDE       0.049300
      9 C6          -0.0180     6.1590    11.5750 cc         1 UDE       0.156300
     10 N3           1.0500     7.9990    11.9100 nd         1 UDE      -0.192800
     11 O4          -4.5550     1.4690    18.3440 o          1 UDE      -0.543000
     12 C3          -1.2540     9.5610    13.8080 c5         1 UDE       0.152300
     13 O3          -6.9860     1.5380    17.7680 o          1 UDE      -0.543000
     14 C2          -2.5540    11.0550    12.5850 c5         1 UDE       0.349700
     15 N4           1.1960     6.7440    11.6670 nc         1 UDE      -0.353000
     16 O6          -3.9400    12.6440    10.8790 o          1 UDE      -0.569000
     17 N           -2.6920    14.4830    11.3260 ns         1 UDE      -0.465500
     18 C17         -1.1620    13.0780    12.9840 cc         1 UDE      -0.002400
     19 C18         -0.8350    14.3710    12.8100 cd         1 UDE      -0.269400
     20 C19          0.3230    15.0140    13.5000 c3         1 UDE      -0.018900
     21 C           -1.6520    15.1750    11.9240 c          1 UDE       0.587200
     22 O           -1.4820    16.3570    11.6920 o          1 UDE      -0.525000
     23 C16         -1.8870    10.1080    11.5820 c5         1 UDE      -0.137400
     24 C15         -0.9650     7.1330    11.7700 cd         1 UDE      -0.185000
     25 N5          -0.7680     4.0160    12.5070 ns         1 UDE      -0.503900
     26 N6          -2.4650     3.6290    13.9980 ns         1 UDE      -0.169000
     27 C14         -4.0350     2.6420    15.4980 ca         1 UDE      -0.063000
     28 C13         -5.2990     2.5880    16.0670 ca         1 UDE      -0.240500
     29 S           -5.6030     1.3900    17.3380 sy         1 UDE       1.126600
     30 N7          -5.3320    -0.0150    16.5130 n8         1 UDE      -1.009100
     31 C12         -6.3080     3.4580    15.6940 ca         1 UDE      -0.041000
     32 C11         -6.0170     4.4100    14.7260 ca         1 UDE      -0.107000
     33 C10         -4.7630     4.4910    14.1470 ca         1 UDE      -0.075000
     34 H1          -0.8190     4.4980    10.4880 h1         1 UDE       0.081200
     35 H2           0.7760     4.2410    11.1600 h1         1 UDE       0.081200
     36 H3           0.1590    10.2210    12.2890 h1         1 UDE       0.125700
     37 H4          -0.7300     9.6810    15.8700 h1         1 UDE       0.042700
     38 H5           0.3440     8.6920    14.8860 h1         1 UDE       0.042700
     39 H6          -1.8380     8.6440    13.9680 h1         1 UDE       0.062700
     40 H7          -3.6400    10.9850    12.5270 h2         1 UDE       0.109700
     41 H8          -3.2780    15.0030    10.6840 hn         1 UDE       0.343500
     42 H9          -0.5850    12.4490    13.6460 h4         1 UDE       0.235000
     43 H10          0.8290    14.3040    14.1530 hc         1 UDE       0.046700
     44 H11          1.0560    15.3910    12.7850 hc         1 UDE       0.046700
     45 H12          0.0050    15.8610    14.1100 hc         1 UDE       0.046700
     46 H13         -2.5880     9.3130    11.3270 hc         1 UDE       0.087200
     47 H14         -1.5920    10.6050    10.6590 hc         1 UDE       0.087200
     48 H15          1.2190    10.8320    15.4310 ho         1 UDE       0.519000
     49 H16         -2.0410     7.1010    11.7830 h4         1 UDE       0.184000
     50 H17         -0.1350     3.8060    13.2630 hn         1 UDE       0.311500
     51 H18         -1.7660     3.1330    14.5330 hn         1 UDE       0.153000
     52 H19         -3.2660     1.9390    15.7960 ha         1 UDE       0.129000
     53 H20         -5.1230    -0.7850    17.1420 hn         1 UDE       0.476500
     54 H21         -6.0940    -0.2610    15.8890 hn         1 UDE       0.476500
     55 H22         -7.2910     3.4070    16.1400 ha         1 UDE       0.145000
     56 H23         -6.7810     5.1130    14.4240 ha         1 UDE       0.122000
     57 H24         -4.5720     5.2560    13.4130 ha         1 UDE       0.141000
     58 C7          -0.1960     4.6890    11.3600 c3         1 UDE       0.090700
     59 C4          -0.2170     9.6350    14.9020 c3         1 UDE       0.163600
     60 O2           0.6120    10.7500    14.6900 oh         1 UDE      -0.727000
@<TRIPOS>BOND
     1     1     6 1   
     2     1    14 1   
     3     1    18 1   
     4     2     7 2   
     5     2    25 1   
     6     2    26 1   
     7     3     8 1   
     8     3    10 1   
     9     3    24 1   
    10     4    26 1   
    11     4    27 ar  
    12     4    33 ar  
    13     5    12 1   
    14     5    14 1   
    15     6    16 2   
    16     6    17 1   
    17     8    12 1   
    18     8    23 1   
    19     8    36 1   
    20     9    15 1   
    21     9    24 2   
    22     9    58 1   
    23    10    15 2   
    24    11    29 2   
    25    12    39 1   
    26    12    59 1   
    27    13    29 2   
    28    14    23 1   
    29    14    40 1   
    30    17    21 1   
    31    17    41 1   
    32    18    19 2   
    33    18    42 1   
    34    19    20 1   
    35    19    21 1   
    36    20    43 1   
    37    20    44 1   
    38    20    45 1   
    39    21    22 2   
    40    23    46 1   
    41    23    47 1   
    42    24    49 1   
    43    25    50 1   
    44    25    58 1   
    45    26    51 1   
    46    27    28 ar  
    47    27    52 1   
    48    28    29 1   
    49    28    31 ar  
    50    29    30 1   
    51    30    53 1   
    52    30    54 1   
    53    31    32 ar  
    54    31    55 1   
    55    32    33 ar  
    56    32    56 1   
    57    33    57 1   
    58    34    58 1   
    59    35    58 1   
    60    37    59 1   
    61    38    59 1   
    62    48    60 1   
    63    59    60 1   
@<TRIPOS>SUBSTRUCTURE
     1 UDE         1 TEMP              0 ****  ****    0 ROOT
