@<TRIPOS>MOLECULE
UDG
  143   145     1     0     0
SMALL
No Charge or Current Charge


@<TRIPOS>ATOM
      1 N1           1.5610     2.3390    -1.5490 n          1 UDG      -0.310000
      2 C2           2.5230     2.3290    -0.5080 c          1 UDG       0.615000
      3 O2           3.0940     1.3320    -0.0990 o          1 UDG      -0.535000
      4 N3           2.8340     3.5420     0.0260 ns         1 UDG      -0.466500
      5 C4           2.3830     4.7650    -0.3430 c          1 UDG       0.612200
      6 O4           2.7580     5.7880     0.2000 o          1 UDG      -0.582000
      7 C5           1.4430     4.7260    -1.4570 cc         1 UDG      -0.404200
      8 C6           1.0430     3.5420    -2.0290 cd         1 UDG       0.037600
      9 PA           0.7550    -4.3960     0.0760 p5         1 UDG       1.496800
     10 PB           2.5060    -3.6600     2.0370 p5         1 UDG       1.459800
     11 C1           1.3510    -1.7160     3.2640 c6         1 UDG       0.448300
     12 C11          1.0770     1.0730    -2.1720 c5         1 UDG       0.341700
     13 O1A         -0.6520    -4.8790    -0.0100 o          1 UDG      -0.845500
     14 O1B          3.6040    -3.8850     1.0570 o          1 UDG      -0.832500
     15 C7           0.1020    -0.8500     2.8650 c6         1 UDG       0.056700
     16 C12          2.0430     0.7290    -3.3710 c5         1 UDG       0.090300
     17 O7           1.3540     0.4230    -4.5920 oh         1 UDG      -0.733000
     18 O2A          1.6620    -5.3070    -0.6780 o          1 UDG      -0.845500
     19 O2B          2.8760    -4.2100     3.3730 o          1 UDG      -0.832500
     20 C3           0.5310     0.5940     2.4490 c6         1 UDG       0.164300
     21 C13          2.7150    -0.5810    -2.8580 c5         1 UDG       0.089300
     22 O3           3.1440    -1.4010    -3.9690 oh         1 UDG      -0.714000
     23 N34         -0.6970    -1.5030     1.7980 ns         1 UDG      -0.465900
     24 C35         -2.0680    -1.4830     1.6950 c          1 UDG       0.626100
     25 O36         -2.7760    -0.9350     2.5290 o          1 UDG      -0.681100
     26 C37         -2.6460    -2.1360     0.4420 c3         1 UDG      -0.192400
     27 C38         -3.4770    -3.3870     0.7860 c3         1 UDG       0.214300
     28 C39         -4.1110    -4.0390    -0.4670 c3         1 UDG      -0.107400
     29 O3A          1.1020    -4.2160     1.5980 os         1 UDG      -0.714800
     30 O3B          2.1180    -2.1050     2.1290 os         1 UDG      -0.613400
     31 C8           1.5360     1.2170     3.4550 c6         1 UDG       0.137300
     32 O8           1.9410     2.5300     3.0090 oh         1 UDG      -0.720000
     33 C14          1.5440    -1.1950    -2.0300 c5         1 UDG       0.164300
     34 O14          1.0780    -0.0590    -1.2800 os         1 UDG      -0.403000
     35 C40         -5.0660    -5.2150    -0.1460 c3         1 UDG      -0.063400
     36 C41         -5.7650    -5.7920    -1.3960 c3         1 UDG      -0.074400
     37 C42         -6.7380    -6.9440    -1.0610 c3         1 UDG      -0.073400
     38 C43         -7.4770    -7.4990    -2.2990 c3         1 UDG      -0.074400
     39 C44         -8.4740    -8.6260    -1.9480 c3         1 UDG      -0.074400
     40 C45         -9.2460    -9.1580    -3.1750 c3         1 UDG      -0.074400
     41 C46        -10.2610   -10.2650    -2.8130 c3         1 UDG      -0.074400
     42 C47        -11.0550   -10.7830    -4.0320 c3         1 UDG      -0.076400
     43 C48        -12.0760   -11.8820    -3.6640 c3         1 UDG      -0.075400
     44 C49        -12.8760   -12.3940    -4.8780 c3         1 UDG      -0.087100
     45 C9           2.7310     0.2560     3.6810 c6         1 UDG       0.144300
     46 O5           2.2170    -1.0080     4.1750 os         1 UDG      -0.449000
     47 C15          1.9620    -2.3300    -1.0680 c3         1 UDG       0.223600
     48 O15          0.7840    -2.8680    -0.4300 os         1 UDG      -0.641400
     49 O50         -2.6530    -4.3390     1.4570 oh         1 UDG      -0.720000
     50 O51         -0.5810     1.5130     2.4010 os         1 UDG      -0.455100
     51 C52         -1.3200     1.7420     1.2770 c          1 UDG       0.623100
     52 O53         -1.1660     1.1690     0.2110 o          1 UDG      -0.491000
     53 C54         -2.1100     3.0350     1.4180 c3         1 UDG      -0.180400
     54 C55         -1.2030     4.2390     1.0830 c3         1 UDG       0.173300
     55 C56         -1.9850     5.5720     1.0110 c3         1 UDG      -0.109400
     56 C57         -1.1280     6.7700     0.5360 c3         1 UDG      -0.071400
     57 C58         -1.9270     8.0840     0.4020 c3         1 UDG      -0.075400
     58 C59         -1.0540     9.2640    -0.0790 c3         1 UDG      -0.074400
     59 C10          3.7550     0.8140     4.7240 c3         1 UDG       0.169600
     60 O6           4.8240    -0.1000     5.0230 oh         1 UDG      -0.672000
     61 C60         -1.8450    10.5780    -0.2610 c3         1 UDG      -0.074400
     62 C61         -0.9560    11.7500    -0.7330 c3         1 UDG      -0.074400
     63 C62         -1.7400    13.0630    -0.9460 c3         1 UDG      -0.073400
     64 C63         -0.8390    14.2300    -1.4080 c3         1 UDG      -0.075400
     65 C64         -1.6180    15.5430    -1.6430 c3         1 UDG      -0.075400
     66 C65         -0.7120    16.7080    -2.0980 c3         1 UDG      -0.075400
     67 C66         -1.4900    18.0160    -2.3430 c3         1 UDG      -0.087100
     68 O67         -0.1720     4.3470     2.0740 oh         1 UDG      -0.660000
     69 H5           1.0790     5.6870    -1.8030 ha         1 UDG       0.206000
     70 H6           0.3400     3.4530    -2.8570 h4         1 UDG       0.220000
     71 H1           0.9580    -2.6100     3.7770 h2         1 UDG       0.107700
     72 H1'A         0.0570     1.2570    -2.5350 h2         1 UDG       0.081700
     73 H2          -0.5260    -0.7680     3.7630 h1         1 UDG       0.075700
     74 H2'A         2.7910     1.5170    -3.5400 h1         1 UDG       0.053700
     75 HO2          1.8280    -0.3990    -4.8920 ho         1 UDG       0.521000
     76 H3           1.0200     0.5520     1.4640 h1         1 UDG       0.099700
     77 H3'A         3.5610    -0.3350    -2.1960 h1         1 UDG       0.093700
     78 HO3          3.9830    -1.8540    -3.7060 ho         1 UDG       0.499000
     79 HN34        -0.1940    -1.9370     1.0250 hn         1 UDG       0.367500
     80 H37         -3.3100    -1.4100    -0.0390 hc         1 UDG       0.063700
     81 H37A        -1.8480    -2.4030    -0.2570 hc         1 UDG       0.063700
     82 H38         -4.2930    -3.0760     1.4520 h1         1 UDG       0.032700
     83 H39         -4.6740    -3.2720    -1.0130 hc         1 UDG       0.039700
     84 H39A        -3.3190    -4.3870    -1.1420 hc         1 UDG       0.039700
     85 H4           1.0150     1.3190     4.4180 h1         1 UDG       0.035700
     86 HO4          1.1100     2.9920     2.7160 ho         1 UDG       0.495000
     87 H4'A         0.7350    -1.5540    -2.6830 h1         1 UDG       0.061700
     88 H40         -4.5060    -6.0160     0.3510 hc         1 UDG       0.041700
     89 H40A        -5.8290    -4.8710     0.5640 hc         1 UDG       0.041700
     90 H41         -6.3180    -4.9910    -1.9010 hc         1 UDG       0.033700
     91 H41A        -5.0060    -6.1530    -2.1010 hc         1 UDG       0.033700
     92 H42         -6.1820    -7.7580    -0.5780 hc         1 UDG       0.034200
     93 H42A        -7.4780    -6.5870    -0.3330 hc         1 UDG       0.034200
     94 H43         -8.0180    -6.6810    -2.7900 hc         1 UDG       0.035200
     95 H43A        -6.7410    -7.8770    -3.0200 hc         1 UDG       0.035200
     96 H44         -7.9300    -9.4540    -1.4770 hc         1 UDG       0.034200
     97 H44A        -9.1920    -8.2520    -1.2080 hc         1 UDG       0.034200
     98 H45         -9.7780    -8.3260    -3.6540 hc         1 UDG       0.036200
     99 H45A        -8.5320    -9.5490    -3.9110 hc         1 UDG       0.036200
    100 H46         -9.7280   -11.1040    -2.3470 hc         1 UDG       0.035200
    101 H46A       -10.9640    -9.8780    -2.0650 hc         1 UDG       0.035200
    102 H47        -11.5830    -9.9440    -4.5010 hc         1 UDG       0.036200
    103 H47A       -10.3530   -11.1780    -4.7780 hc         1 UDG       0.036200
    104 H48        -11.5510   -12.7260    -3.2010 hc         1 UDG       0.034700
    105 H48A       -12.7760   -11.4910    -2.9160 hc         1 UDG       0.034700
    106 H49        -12.2050   -12.8240    -5.6310 hc         1 UDG       0.027700
    107 H49A       -13.5860   -13.1700    -4.5670 hc         1 UDG       0.027700
    108 H49B       -13.4410   -11.5780    -5.3420 hc         1 UDG       0.027700
    109 H7           3.2630     0.0940     2.7310 h1         1 UDG       0.093700
    110 H5'A         2.4920    -3.0980    -1.6480 h1         1 UDG       0.069200
    111 H5AA         2.6630    -1.9100    -0.3370 h1         1 UDG       0.069200
    112 HO50        -1.8950    -4.5710     0.8220 ho         1 UDG       0.541000
    113 H54         -2.9540     3.0140     0.7200 hc         1 UDG       0.078200
    114 H54A        -2.4590     3.1430     2.4510 hc         1 UDG       0.078200
    115 H55         -0.7580     4.0560     0.0940 h1         1 UDG       0.091700
    116 H56         -2.8250     5.4500     0.3160 hc         1 UDG       0.042200
    117 H56A        -2.4220     5.7990     1.9920 hc         1 UDG       0.042200
    118 H57         -0.2940     6.9290     1.2310 hc         1 UDG       0.044700
    119 H57A        -0.6880     6.5260    -0.4380 hc         1 UDG       0.044700
    120 H58         -2.7520     7.9330    -0.3070 hc         1 UDG       0.035200
    121 H58A        -2.3770     8.3360     1.3710 hc         1 UDG       0.035200
    122 H59         -0.2440     9.4280     0.6430 hc         1 UDG       0.037700
    123 H59A        -0.5820     8.9960    -1.0330 hc         1 UDG       0.037700
    124 H8           4.1740     1.7510     4.3360 h1         1 UDG       0.002700
    125 H6'A         3.2090     1.0580     5.6460 h1         1 UDG       0.002700
    126 HO6          5.3630     0.3150     5.7350 ho         1 UDG       0.476000
    127 H60         -2.6480    10.4170    -0.9920 hc         1 UDG       0.036200
    128 H60A        -2.3240    10.8470     0.6890 hc         1 UDG       0.036200
    129 H61         -0.1630    11.9200     0.0080 hc         1 UDG       0.037200
    130 H61A        -0.4620    11.4710    -1.6720 hc         1 UDG       0.037200
    131 H62         -2.5260    12.8960    -1.6930 hc         1 UDG       0.036700
    132 H62A        -2.2410    13.3420    -0.0100 hc         1 UDG       0.036700
    133 H63         -0.0600    14.4040    -0.6540 hc         1 UDG       0.036700
    134 H63A        -0.3280    13.9450    -2.3360 hc         1 UDG       0.036700
    135 H64         -2.3930    15.3710    -2.4010 hc         1 UDG       0.036200
    136 H64A        -2.1340    15.8280    -0.7170 hc         1 UDG       0.036200
    137 H65          0.0580    16.8890    -1.3370 hc         1 UDG       0.036200
    138 H65A        -0.1910    16.4250    -3.0210 hc         1 UDG       0.036200
    139 H66         -0.8060    18.8130    -2.6610 hc         1 UDG       0.029033
    140 H66A        -2.2440    17.8780    -3.1270 hc         1 UDG       0.029033
    141 H66B        -1.9960    18.3440    -1.4270 hc         1 UDG       0.029033
    142 HO67        -0.4110     5.1120     2.6430 ho         1 UDG       0.435000
    143 HN3          3.4870     3.5270     0.7930 hn         1 UDG       0.334500
@<TRIPOS>BOND
     1     1     2 1   
     2     1     8 1   
     3     1    12 1   
     4     2     3 2   
     5     2     4 1   
     6     4     5 1   
     7     4   143 1   
     8     5     6 2   
     9     5     7 1   
    10     7     8 2   
    11     7    69 1   
    12     8    70 1   
    13     9    13 1   
    14     9    18 1   
    15     9    29 1   
    16     9    48 1   
    17    10    14 1   
    18    10    19 1   
    19    10    29 1   
    20    10    30 1   
    21    11    15 1   
    22    11    30 1   
    23    11    46 1   
    24    11    71 1   
    25    12    16 1   
    26    12    34 1   
    27    12    72 1   
    28    15    20 1   
    29    15    23 1   
    30    15    73 1   
    31    16    17 1   
    32    16    21 1   
    33    16    74 1   
    34    17    75 1   
    35    20    31 1   
    36    20    50 1   
    37    20    76 1   
    38    21    22 1   
    39    21    33 1   
    40    21    77 1   
    41    22    78 1   
    42    23    24 1   
    43    23    79 1   
    44    24    25 2   
    45    24    26 1   
    46    26    27 1   
    47    26    80 1   
    48    26    81 1   
    49    27    28 1   
    50    27    49 1   
    51    27    82 1   
    52    28    35 1   
    53    28    83 1   
    54    28    84 1   
    55    31    32 1   
    56    31    45 1   
    57    31    85 1   
    58    32    86 1   
    59    33    34 1   
    60    33    47 1   
    61    33    87 1   
    62    35    36 1   
    63    35    88 1   
    64    35    89 1   
    65    36    37 1   
    66    36    90 1   
    67    36    91 1   
    68    37    38 1   
    69    37    92 1   
    70    37    93 1   
    71    38    39 1   
    72    38    94 1   
    73    38    95 1   
    74    39    40 1   
    75    39    96 1   
    76    39    97 1   
    77    40    41 1   
    78    40    98 1   
    79    40    99 1   
    80    41    42 1   
    81    41   100 1   
    82    41   101 1   
    83    42    43 1   
    84    42   102 1   
    85    42   103 1   
    86    43    44 1   
    87    43   104 1   
    88    43   105 1   
    89    44   106 1   
    90    44   107 1   
    91    44   108 1   
    92    45    46 1   
    93    45    59 1   
    94    45   109 1   
    95    47    48 1   
    96    47   110 1   
    97    47   111 1   
    98    49   112 1   
    99    50    51 1   
   100    51    52 2   
   101    51    53 1   
   102    53    54 1   
   103    53   113 1   
   104    53   114 1   
   105    54    55 1   
   106    54    68 1   
   107    54   115 1   
   108    55    56 1   
   109    55   116 1   
   110    55   117 1   
   111    56    57 1   
   112    56   118 1   
   113    56   119 1   
   114    57    58 1   
   115    57   120 1   
   116    57   121 1   
   117    58    61 1   
   118    58   122 1   
   119    58   123 1   
   120    59    60 1   
   121    59   124 1   
   122    59   125 1   
   123    60   126 1   
   124    61    62 1   
   125    61   127 1   
   126    61   128 1   
   127    62    63 1   
   128    62   129 1   
   129    62   130 1   
   130    63    64 1   
   131    63   131 1   
   132    63   132 1   
   133    64    65 1   
   134    64   133 1   
   135    64   134 1   
   136    65    66 1   
   137    65   135 1   
   138    65   136 1   
   139    66    67 1   
   140    66   137 1   
   141    66   138 1   
   142    67   139 1   
   143    67   140 1   
   144    67   141 1   
   145    68   142 1   
@<TRIPOS>SUBSTRUCTURE
     1 UDG         1 TEMP              0 ****  ****    0 ROOT
