@<TRIPOS>MOLECULE
UDG
  143   145     1     0     0
SMALL
bcc


@<TRIPOS>ATOM
      1 N1           3.7110     0.9690    -0.4990 n          1 UDG      -0.377000
      2 C2           4.8280     0.2880    -0.0640 c          1 UDG       0.824500
      3 O2           5.1070    -0.8350    -0.4280 o          1 UDG      -0.610500
      4 N3           5.6210     0.9850     0.8100 ns         1 UDG      -0.600500
      5 C4           5.4640     2.2890     1.2570 c          1 UDG       0.754700
      6 O4           6.2950     2.7930     1.9900 o          1 UDG      -0.657500
      7 C5           4.2800     2.9260     0.7430 cc         1 UDG      -0.354200
      8 C6           3.4700     2.2510    -0.0840 cd         1 UDG       0.087600
      9 PA           0.7260    -4.8520     0.4750 p5         1 UDG       1.496800
     10 PB           2.7370    -4.3430     2.6170 p5         1 UDG       1.459800
     11 C1           1.9090    -2.1290     3.8040 c6         1 UDG       0.401900
     12 C11          2.7650     0.3240    -1.4040 c5         1 UDG       0.318500
     13 O1A         -0.7760    -4.8640     0.5910 o          1 UDG      -0.845500
     14 O1B          3.8110    -4.5830     1.6120 o          1 UDG      -0.832500
     15 C7           1.0650    -0.9330     3.3390 c6         1 UDG       0.056700
     16 C12          3.3400    -0.1270    -2.7600 c5         1 UDG       0.067100
     17 O7           2.4880     0.3580    -3.7670 oh         1 UDG      -0.610800
     18 O2A          1.4220    -5.9410    -0.2720 o          1 UDG      -0.845500
     19 O2B          2.7790    -4.9250     3.9920 o          1 UDG      -0.832500
     20 C3           1.9210     0.2910     3.0090 c6         1 UDG       0.141100
     21 C13          3.2610    -1.6620    -2.6870 c5         1 UDG       0.066100
     22 O3           2.9200    -2.2480    -3.9200 oh         1 UDG      -0.591800
     23 N34          0.2340    -1.3180     2.2310 ns         1 UDG      -0.532900
     24 C35         -1.0450    -0.9380     2.0770 c          1 UDG       0.693100
     25 O36         -1.6670    -0.3040     2.9230 o          1 UDG      -0.681100
     26 C37         -1.6900    -1.3610     0.7780 c3         1 UDG      -0.192400
     27 C38         -2.8880    -2.2760     1.0440 c3         1 UDG       0.191100
     28 C39         -3.5120    -2.7440    -0.2690 c3         1 UDG      -0.107400
     29 O3A          1.2630    -4.7640     2.0180 os         1 UDG      -0.714800
     30 O3B          2.5530    -2.7030     2.7080 os         1 UDG      -0.590200
     31 C8           2.9750     0.5520     4.0740 c6         1 UDG       0.114100
     32 O8           3.8100     1.5730     3.5960 oh         1 UDG      -0.597800
     33 C14          2.1380    -1.8870    -1.6770 c5         1 UDG       0.141100
     34 O14          2.2010    -0.7900    -0.7860 os         1 UDG      -0.356600
     35 C40         -4.7920    -3.5460    -0.0770 c3         1 UDG      -0.063400
     36 C41         -5.3980    -4.0290    -1.3890 c3         1 UDG      -0.074400
     37 C42         -6.7460    -4.7160    -1.2090 c3         1 UDG      -0.073400
     38 C43         -7.3430    -5.2270    -2.5140 c3         1 UDG      -0.074400
     39 C44         -8.7380    -5.8170    -2.3480 c3         1 UDG      -0.074400
     40 C45         -9.3320    -6.3350    -3.6520 c3         1 UDG      -0.074400
     41 C46        -10.7490    -6.8730    -3.4970 c3         1 UDG      -0.074400
     42 C47        -11.3410    -7.3940    -4.8010 c3         1 UDG      -0.076400
     43 C48        -12.7670    -7.9090    -4.6550 c3         1 UDG      -0.075400
     44 C49        -13.3440    -8.4320    -5.9640 c3         1 UDG      -0.087100
     45 C9           3.7420    -0.7430     4.3580 c6         1 UDG       0.121100
     46 O5           2.8220    -1.7350     4.7770 os         1 UDG      -0.402600
     47 C15          2.2870    -3.1780    -0.9160 c3         1 UDG       0.200400
     48 O15          1.1220    -3.3870    -0.1350 os         1 UDG      -0.618200
     49 O50         -2.5310    -3.3440     1.8830 oh         1 UDG      -0.657800
     50 O51          1.0850     1.4540     2.9960 os         1 UDG      -0.431900
     51 C52          0.5330     1.9080     1.8760 c          1 UDG       0.672100
     52 O53          0.6780     1.4080     0.7920 o          1 UDG      -0.540000
     53 C54         -0.3350     3.1100     2.1410 c3         1 UDG      -0.180400
     54 C55         -0.2520     4.1410     1.0210 c3         1 UDG       0.150100
     55 C56         -1.2200     5.2930     1.2650 c3         1 UDG      -0.109400
     56 C57         -1.1980     6.3480     0.1680 c3         1 UDG      -0.071400
     57 C58         -2.2990     7.3900     0.3230 c3         1 UDG      -0.075400
     58 C59         -2.2780     8.4450    -0.7750 c3         1 UDG      -0.074400
     59 C10          4.7570    -0.5660     5.4660 c3         1 UDG       0.146400
     60 O6           5.4800    -1.7620     5.6220 oh         1 UDG      -0.549800
     61 C60         -3.4210     9.4480    -0.6760 c3         1 UDG      -0.074400
     62 C61         -3.4030    10.4890    -1.7880 c3         1 UDG      -0.074400
     63 C62         -4.5640    11.4730    -1.7170 c3         1 UDG      -0.073400
     64 C63         -4.5480    12.5000    -2.8410 c3         1 UDG      -0.075400
     65 C64         -5.7130    13.4800    -2.7850 c3         1 UDG      -0.075400
     66 C65         -5.7000    14.4960    -3.9210 c3         1 UDG      -0.075400
     67 C66         -6.8630    15.4760    -3.8590 c3         1 UDG      -0.087100
     68 O67          1.0790     4.5820     0.8380 oh         1 UDG      -0.597800
     69 H5           4.0380     3.9330     1.0430 ha         1 UDG       0.156000
     70 H6           2.5690     2.7030    -0.4680 h4         1 UDG       0.170000
     71 H1           1.2420    -2.8420     4.2970 h2         1 UDG       0.107700
     72 H1'A         2.0080     1.0890    -1.5940 h2         1 UDG       0.081700
     73 H2           0.4140    -0.6740     4.1780 h1         1 UDG       0.075700
     74 H2'A         4.3640     0.2320    -2.9130 h1         1 UDG       0.053700
     75 HO2          2.3890    -0.3530    -4.4150 ho         1 UDG       0.422000
     76 H3           2.4060     0.1590     2.0370 h1         1 UDG       0.099700
     77 H3'A         4.2020    -2.0640    -2.3080 h1         1 UDG       0.093700
     78 HO3          3.7280    -2.4460    -4.4030 ho         1 UDG       0.400000
     79 HN34         0.6970    -1.7600     1.4480 hn         1 UDG       0.367500
     80 H37         -2.0230    -0.4580     0.2590 hc         1 UDG       0.063700
     81 H37A        -0.9790    -1.8650     0.1210 hc         1 UDG       0.063700
     82 H38         -3.6400    -1.6940     1.5890 h1         1 UDG       0.032700
     83 H39         -3.7290    -1.8680    -0.8900 hc         1 UDG       0.039700
     84 H39A        -2.7770    -3.3390    -0.8230 hc         1 UDG       0.039700
     85 H4           2.4660     0.8530     5.0020 h1         1 UDG       0.035700
     86 HO4          4.2040     2.0410     4.3370 ho         1 UDG       0.396000
     87 H4'A         1.1770    -1.8870    -2.2130 h1         1 UDG       0.061700
     88 H40         -4.5930    -4.4040     0.5700 hc         1 UDG       0.041700
     89 H40A        -5.5260    -2.9270     0.4530 hc         1 UDG       0.041700
     90 H41         -5.5190    -3.1790    -2.0710 hc         1 UDG       0.033700
     91 H41A        -4.6990    -4.7130    -1.8830 hc         1 UDG       0.033700
     92 H42         -6.6410    -5.5490    -0.5040 hc         1 UDG       0.034200
     93 H42A        -7.4450    -4.0140    -0.7420 hc         1 UDG       0.034200
     94 H43         -7.3850    -4.4060    -3.2380 hc         1 UDG       0.035200
     95 H43A        -6.6770    -5.9800    -2.9500 hc         1 UDG       0.035200
     96 H44         -8.7060    -6.6300    -1.6140 hc         1 UDG       0.034200
     97 H44A        -9.4020    -5.0550    -1.9250 hc         1 UDG       0.034200
     98 H45         -9.3310    -5.5290    -4.3940 hc         1 UDG       0.036200
     99 H45A        -8.6860    -7.1210    -4.0590 hc         1 UDG       0.036200
    100 H46        -10.7550    -7.6760    -2.7510 hc         1 UDG       0.035200
    101 H46A       -11.3940    -6.0830    -3.0960 hc         1 UDG       0.035200
    102 H47        -11.3210    -6.5960    -5.5520 hc         1 UDG       0.036200
    103 H47A       -10.7050    -8.1950    -5.1950 hc         1 UDG       0.036200
    104 H48        -12.7910    -8.7040    -3.9030 hc         1 UDG       0.034700
    105 H48A       -13.4030    -7.1060    -4.2670 hc         1 UDG       0.034700
    106 H49        -12.7460    -9.2600    -6.3500 hc         1 UDG       0.027700
    107 H49A       -14.3650    -8.7930    -5.8390 hc         1 UDG       0.027700
    108 H49B       -13.3590    -7.6540    -6.7290 hc         1 UDG       0.027700
    109 H7           4.2680    -1.0570     3.4470 h1         1 UDG       0.093700
    110 H5'A         2.4160    -3.9890    -1.6390 h1         1 UDG       0.069200
    111 H5AA         3.1770    -3.1340    -0.2850 h1         1 UDG       0.069200
    112 HO50        -1.8410    -3.8820     1.4240 ho         1 UDG       0.502000
    113 H54         -1.3640     2.7440     2.2310 hc         1 UDG       0.078200
    114 H54A        -0.0850     3.5620     3.1040 hc         1 UDG       0.078200
    115 H55         -0.5260     3.6580     0.0790 h1         1 UDG       0.091700
    116 H56         -2.2290     4.8740     1.3460 hc         1 UDG       0.042200
    117 H56A        -1.0070     5.7560     2.2360 hc         1 UDG       0.042200
    118 H57         -0.2250     6.8470     0.1490 hc         1 UDG       0.044700
    119 H57A        -1.3050     5.8590    -0.8070 hc         1 UDG       0.044700
    120 H58         -3.2730     6.8870     0.3240 hc         1 UDG       0.035200
    121 H58A        -2.2110     7.8770     1.3000 hc         1 UDG       0.035200
    122 H59         -1.3210     8.9800    -0.7500 hc         1 UDG       0.037700
    123 H59A        -2.3180     7.9500    -1.7520 hc         1 UDG       0.037700
    124 H8           5.4200     0.2670     5.2000 h1         1 UDG       0.002700
    125 H6'A         4.2350    -0.2800     6.3910 h1         1 UDG       0.002700
    126 HO6          6.1820    -1.6000     6.2580 ho         1 UDG       0.377000
    127 H60         -4.3750     8.9090    -0.6990 hc         1 UDG       0.036200
    128 H60A        -3.3840     9.9520     0.2960 hc         1 UDG       0.036200
    129 H61         -2.4570    11.0410    -1.7550 hc         1 UDG       0.037200
    130 H61A        -3.4190     9.9800    -2.7580 hc         1 UDG       0.037200
    131 H62         -5.5090    10.9190    -1.7450 hc         1 UDG       0.036700
    132 H62A        -4.5460    11.9900    -0.7510 hc         1 UDG       0.036700
    133 H63         -3.6050    13.0570    -2.8120 hc         1 UDG       0.036700
    134 H63A        -4.5590    11.9800    -3.8060 hc         1 UDG       0.036700
    135 H64         -6.6570    12.9240    -2.8070 hc         1 UDG       0.036200
    136 H64A        -5.6980    14.0090    -1.8250 hc         1 UDG       0.036200
    137 H65         -4.7550    15.0480    -3.9010 hc         1 UDG       0.036200
    138 H65A        -5.7170    13.9640    -4.8780 hc         1 UDG       0.036200
    139 H66         -6.8370    16.1810    -4.6910 hc         1 UDG       0.029033
    140 H66A        -7.8210    14.9540    -3.8980 hc         1 UDG       0.029033
    141 H66B        -6.8430    16.0540    -2.9340 hc         1 UDG       0.029033
    142 HO67         1.3620     5.0430     1.6350 ho         1 UDG       0.396000
    143 HN3          6.4400     0.4870     1.1340 hn         1 UDG       0.334500
@<TRIPOS>BOND
     1     1     2 1   
     2     1     8 1   
     3     1    12 1   
     4     2     3 2   
     5     2     4 1   
     6     4     5 1   
     7     4   143 1   
     8     5     6 2   
     9     5     7 1   
    10     7     8 2   
    11     7    69 1   
    12     8    70 1   
    13     9    13 1   
    14     9    18 1   
    15     9    29 1   
    16     9    48 1   
    17    10    14 1   
    18    10    19 1   
    19    10    29 1   
    20    10    30 1   
    21    11    15 1   
    22    11    30 1   
    23    11    46 1   
    24    11    71 1   
    25    12    16 1   
    26    12    34 1   
    27    12    72 1   
    28    15    20 1   
    29    15    23 1   
    30    15    73 1   
    31    16    17 1   
    32    16    21 1   
    33    16    74 1   
    34    17    75 1   
    35    20    31 1   
    36    20    50 1   
    37    20    76 1   
    38    21    22 1   
    39    21    33 1   
    40    21    77 1   
    41    22    78 1   
    42    23    24 1   
    43    23    79 1   
    44    24    25 2   
    45    24    26 1   
    46    26    27 1   
    47    26    80 1   
    48    26    81 1   
    49    27    28 1   
    50    27    49 1   
    51    27    82 1   
    52    28    35 1   
    53    28    83 1   
    54    28    84 1   
    55    31    32 1   
    56    31    45 1   
    57    31    85 1   
    58    32    86 1   
    59    33    34 1   
    60    33    47 1   
    61    33    87 1   
    62    35    36 1   
    63    35    88 1   
    64    35    89 1   
    65    36    37 1   
    66    36    90 1   
    67    36    91 1   
    68    37    38 1   
    69    37    92 1   
    70    37    93 1   
    71    38    39 1   
    72    38    94 1   
    73    38    95 1   
    74    39    40 1   
    75    39    96 1   
    76    39    97 1   
    77    40    41 1   
    78    40    98 1   
    79    40    99 1   
    80    41    42 1   
    81    41   100 1   
    82    41   101 1   
    83    42    43 1   
    84    42   102 1   
    85    42   103 1   
    86    43    44 1   
    87    43   104 1   
    88    43   105 1   
    89    44   106 1   
    90    44   107 1   
    91    44   108 1   
    92    45    46 1   
    93    45    59 1   
    94    45   109 1   
    95    47    48 1   
    96    47   110 1   
    97    47   111 1   
    98    49   112 1   
    99    50    51 1   
   100    51    52 2   
   101    51    53 1   
   102    53    54 1   
   103    53   113 1   
   104    53   114 1   
   105    54    55 1   
   106    54    68 1   
   107    54   115 1   
   108    55    56 1   
   109    55   116 1   
   110    55   117 1   
   111    56    57 1   
   112    56   118 1   
   113    56   119 1   
   114    57    58 1   
   115    57   120 1   
   116    57   121 1   
   117    58    61 1   
   118    58   122 1   
   119    58   123 1   
   120    59    60 1   
   121    59   124 1   
   122    59   125 1   
   123    60   126 1   
   124    61    62 1   
   125    61   127 1   
   126    61   128 1   
   127    62    63 1   
   128    62   129 1   
   129    62   130 1   
   130    63    64 1   
   131    63   131 1   
   132    63   132 1   
   133    64    65 1   
   134    64   133 1   
   135    64   134 1   
   136    65    66 1   
   137    65   135 1   
   138    65   136 1   
   139    66    67 1   
   140    66   137 1   
   141    66   138 1   
   142    67   139 1   
   143    67   140 1   
   144    67   141 1   
   145    68   142 1   
@<TRIPOS>SUBSTRUCTURE
     1 UDG         1 TEMP              0 ****  ****    0 ROOT
