@<TRIPOS>MOLECULE
UDH
   57    58     1     0     0
SMALL
abcg2


@<TRIPOS>ATOM
      1 N1           4.8980    -0.5380    -0.0520 n          1 UDH      -0.314000
      2 C2           6.1240    -1.1350    -0.2750 c          1 UDH       0.621000
      3 N3           6.4040    -1.3850    -1.5930 ns         1 UDH      -0.475500
      4 C4           5.6170    -1.1150    -2.7030 c          1 UDH       0.587200
      5 C5           4.3560    -0.5020    -2.3730 cc         1 UDH      -0.382200
      6 C6           4.0570    -0.2460    -1.0890 cd         1 UDH       0.021600
      7 O2           6.9000    -1.4220     0.6130 o          1 UDH      -0.598000
      8 O4           6.0100    -1.3970    -3.8200 o          1 UDH      -0.573000
      9 C1B          4.5110    -0.2120     1.3160 c5         1 UDH       0.343700
     10 C2B          4.5830     1.2800     1.6370 c5         1 UDH       0.067300
     11 O6           5.8860     1.6280     1.9980 oh         1 UDH      -0.707000
     12 C3B          3.5470     1.3870     2.7600 c5         1 UDH       0.097300
     13 C4B          2.4790     0.4240     2.2600 c5         1 UDH       0.157300
     14 O7           3.1790    -0.5810     1.5170 os         1 UDH      -0.413000
     15 O3           4.0670     0.9020     3.9710 oh         1 UDH      -0.714000
     16 C5B          1.4510     1.1310     1.3940 c3         1 UDH       0.215600
     17 O5           0.6090     0.1730     0.8010 os         1 UDH      -0.556400
     18 PA          -0.0480     0.5580    -0.6630 p5         1 UDH       1.465800
     19 O1A         -1.0410     1.6610    -0.4870 o          1 UDH      -0.856000
     20 O2A          1.0520     0.6920    -1.6740 o          1 UDH      -0.856000
     21 O3A         -0.7760    -0.9010    -0.8230 os         1 UDH      -0.684800
     22 PB          -2.0670    -1.2290    -1.7810 p5         1 UDH       1.462800
     23 O1B         -2.1340    -0.2790    -2.9350 o          1 UDH      -0.854500
     24 O2B         -3.2240    -0.8720    -0.6760 os         1 UDH      -0.589400
     25 O3B         -2.0490    -2.7070    -2.0180 o          1 UDH      -0.854500
     26 C1          -4.5760    -0.8840    -1.1050 c3         1 UDH       0.239600
     27 C7          -5.4730    -1.1500     0.0880 c3         1 UDH      -0.090400
     28 C3          -6.9510    -1.1010    -0.2750 c3         1 UDH      -0.074400
     29 C8          -7.8560    -1.4030     0.9140 c3         1 UDH      -0.076400
     30 C9          -9.3390    -1.3230     0.5770 c3         1 UDH      -0.079400
     31 C10        -10.2290    -1.6460     1.7670 c3         1 UDH       0.143800
     32 N6         -11.6380    -1.5420     1.4130 n8         1 UDH      -0.997200
     33 HN3          7.3000    -1.8240    -1.7650 hn         1 UDH       0.315500
     34 H5           3.6500    -0.2630    -3.1530 ha         1 UDH       0.257000
     35 H6           3.0990     0.1890    -0.8390 h4         1 UDH       0.290000
     36 H1           5.1820    -0.7700     1.9710 h2         1 UDH       0.098700
     37 H2           4.2370     1.8630     0.7730 h1         1 UDH       0.071700
     38 HO2          5.9810     2.5840     1.9350 ho         1 UDH       0.498000
     39 H3           3.1590     2.4090     2.8650 h1         1 UDH       0.050700
     40 H4           1.9710    -0.0680     3.0940 h1         1 UDH       0.094700
     41 HO3          4.9390     1.2940     4.0990 ho         1 UDH       0.502000
     42 H5'1         0.8820     1.8160     2.0320 h1         1 UDH       0.009700
     43 H5'2         1.9560     1.7490     0.6390 h1         1 UDH       0.009700
     44 H1'1        -4.8350     0.0780    -1.5610 h1         1 UDH       0.008200
     45 H1'2        -4.7500    -1.6560    -1.8650 h1         1 UDH       0.008200
     46 H2'1        -5.2300    -2.1320     0.5060 hc         1 UDH       0.043700
     47 H2'2        -5.2650    -0.4120     0.8700 hc         1 UDH       0.043700
     48 H3'1        -7.1960    -0.1110    -0.6750 hc         1 UDH       0.031200
     49 H3'2        -7.1590    -1.8160    -1.0780 hc         1 UDH       0.031200
     50 H4'1        -7.6220    -2.4010     1.3000 hc         1 UDH       0.033700
     51 H4'2        -7.6300    -0.7030     1.7260 hc         1 UDH       0.033700
     52 H5B         -9.5820    -0.3220     0.2080 hc         1 UDH       0.041200
     53 H5D         -9.5640    -2.0180    -0.2410 hc         1 UDH       0.041200
     54 H6'1        -9.9500    -2.6360     2.1590 h1         1 UDH       0.024200
     55 H6'2       -10.0240    -0.9310     2.5690 h1         1 UDH       0.024200
     56 HN'1       -11.8550    -2.2440     0.7160 hn         1 UDH       0.380500
     57 HN'2       -12.2040    -1.7790     2.2180 hn         1 UDH       0.380500
@<TRIPOS>BOND
     1     1     2 1   
     2     1     6 1   
     3     1     9 1   
     4     2     3 1   
     5     2     7 2   
     6     3     4 1   
     7     3    33 1   
     8     4     5 1   
     9     4     8 2   
    10     5     6 2   
    11     5    34 1   
    12     6    35 1   
    13     9    10 1   
    14     9    14 1   
    15     9    36 1   
    16    10    11 1   
    17    10    12 1   
    18    10    37 1   
    19    11    38 1   
    20    12    13 1   
    21    12    15 1   
    22    12    39 1   
    23    13    14 1   
    24    13    16 1   
    25    13    40 1   
    26    15    41 1   
    27    16    17 1   
    28    16    42 1   
    29    16    43 1   
    30    17    18 1   
    31    18    19 1   
    32    18    20 1   
    33    18    21 1   
    34    21    22 1   
    35    22    23 1   
    36    22    24 1   
    37    22    25 1   
    38    24    26 1   
    39    26    27 1   
    40    26    44 1   
    41    26    45 1   
    42    27    28 1   
    43    27    46 1   
    44    27    47 1   
    45    28    29 1   
    46    28    48 1   
    47    28    49 1   
    48    29    30 1   
    49    29    50 1   
    50    29    51 1   
    51    30    31 1   
    52    30    52 1   
    53    30    53 1   
    54    31    32 1   
    55    31    54 1   
    56    31    55 1   
    57    32    56 1   
    58    32    57 1   
@<TRIPOS>SUBSTRUCTURE
     1 UDH         1 TEMP              0 ****  ****    0 ROOT
