@<TRIPOS>MOLECULE
UDH
   57    58     1     0     0
SMALL
No Charge or Current Charge


@<TRIPOS>ATOM
      1 N1           3.3400    -0.6730     0.0700 n          1 UDH      -0.314000
      2 C2           4.4810    -1.3210     0.5780 c          1 UDH       0.621000
      3 N3           5.6720    -0.9840     0.0190 ns         1 UDH      -0.475500
      4 C4           5.9040    -0.0950    -0.9790 c          1 UDH       0.587200
      5 C5           4.6940     0.5450    -1.4800 cc         1 UDH      -0.382200
      6 C6           3.4470     0.2550    -0.9710 cd         1 UDH       0.021600
      7 O2           4.4300    -2.1240     1.4970 o          1 UDH      -0.598000
      8 O4           7.0240     0.1300    -1.4020 o          1 UDH      -0.573000
      9 C1B          2.0180    -1.0880     0.6190 c5         1 UDH       0.343700
     10 C2B          1.8410    -0.3680     2.0010 c5         1 UDH       0.067300
     11 O6           2.4620    -1.0520     3.1110 oh         1 UDH      -0.707000
     12 C3B          0.2910    -0.3930     2.1000 c5         1 UDH       0.097300
     13 C4B         -0.0790     0.0270     0.6360 c5         1 UDH       0.157300
     14 O7           0.9100    -0.6450    -0.2010 os         1 UDH      -0.413000
     15 O3          -0.1790    -1.7020     2.4520 oh         1 UDH      -0.714000
     16 C5B         -0.0070     1.5730     0.4160 c3         1 UDH       0.215600
     17 O5          -0.9630     2.0240    -0.5600 os         1 UDH      -0.556400
     18 PA          -0.8510     1.6810    -2.1350 p5         1 UDH       1.465800
     19 O1A         -1.6900     2.6670    -2.8800 o          1 UDH      -0.856000
     20 O2A          0.5790     1.7100    -2.5670 o          1 UDH      -0.856000
     21 O3A         -1.4590     0.2310    -2.0660 os         1 UDH      -0.684800
     22 PB          -2.0160    -0.3530    -3.4180 p5         1 UDH       1.462800
     23 O1B         -1.2950     0.1120    -4.6410 o          1 UDH      -0.854500
     24 O2B         -3.5280     0.2180    -3.3680 os         1 UDH      -0.589400
     25 O3B         -2.0220    -1.8460    -3.3800 o          1 UDH      -0.854500
     26 C1          -4.5750    -0.4090    -2.6100 c3         1 UDH       0.239600
     27 C7          -4.2560    -0.4070    -1.0940 c3         1 UDH      -0.090400
     28 C3          -5.4530    -0.8550    -0.2270 c3         1 UDH      -0.074400
     29 C8          -5.1330    -0.8570     1.2850 c3         1 UDH      -0.076400
     30 C9          -6.3270    -1.3050     2.1570 c3         1 UDH      -0.079400
     31 C10         -5.9990    -1.3050     3.6640 c3         1 UDH       0.143800
     32 N6          -7.1560    -1.7350     4.4710 n8         1 UDH      -0.997200
     33 HN3          6.4820    -1.4480     0.3950 hn         1 UDH       0.315500
     34 H5           4.8410     1.2560    -2.2870 ha         1 UDH       0.257000
     35 H6           2.5140     0.6920    -1.3280 h4         1 UDH       0.290000
     36 H1           2.0030    -2.1810     0.7160 h2         1 UDH       0.098700
     37 H2           2.2080     0.6670     1.9400 h1         1 UDH       0.071700
     38 HO2          3.2860    -1.4830     2.7540 ho         1 UDH       0.498000
     39 H3          -0.0700     0.3440     2.8320 h1         1 UDH       0.050700
     40 H4          -1.0870    -0.3240     0.3800 h1         1 UDH       0.094700
     41 HO3          0.4720    -2.0260     3.1210 ho         1 UDH       0.502000
     42 H5'1        -0.2250     2.0700     1.3700 h1         1 UDH       0.009700
     43 H5'2         1.0120     1.8650     0.1310 h1         1 UDH       0.009700
     44 H1'1        -5.5130     0.1380    -2.7730 h1         1 UDH       0.008200
     45 H1'2        -4.7340    -1.4410    -2.9490 h1         1 UDH       0.008200
     46 H2'1        -3.4150    -1.0790    -0.8910 hc         1 UDH       0.043700
     47 H2'2        -3.9550     0.6030    -0.7910 hc         1 UDH       0.043700
     48 H3'1        -6.3040    -0.1880    -0.4140 hc         1 UDH       0.031200
     49 H3'2        -5.7610    -1.8630    -0.5330 hc         1 UDH       0.031200
     50 H4'1        -4.2810    -1.5240     1.4720 hc         1 UDH       0.033700
     51 H4'2        -4.8230     0.1500     1.5890 hc         1 UDH       0.033700
     52 H5B         -7.1770    -0.6370     1.9710 hc         1 UDH       0.041200
     53 H5D         -6.6350    -2.3130     1.8520 hc         1 UDH       0.041200
     54 H6'1        -5.1610    -1.9870     3.8610 h1         1 UDH       0.024200
     55 H6'2        -5.7080    -0.2940     3.9800 h1         1 UDH       0.024200
     56 HN'1        -7.3830    -2.7080     4.2340 hn         1 UDH       0.380500
     57 HN'2        -6.8750    -1.7850     5.4580 hn         1 UDH       0.380500
@<TRIPOS>BOND
     1     1     2 1   
     2     1     6 1   
     3     1     9 1   
     4     2     3 1   
     5     2     7 2   
     6     3     4 1   
     7     3    33 1   
     8     4     5 1   
     9     4     8 2   
    10     5     6 2   
    11     5    34 1   
    12     6    35 1   
    13     9    10 1   
    14     9    14 1   
    15     9    36 1   
    16    10    11 1   
    17    10    12 1   
    18    10    37 1   
    19    11    38 1   
    20    12    13 1   
    21    12    15 1   
    22    12    39 1   
    23    13    14 1   
    24    13    16 1   
    25    13    40 1   
    26    15    41 1   
    27    16    17 1   
    28    16    42 1   
    29    16    43 1   
    30    17    18 1   
    31    18    19 1   
    32    18    20 1   
    33    18    21 1   
    34    21    22 1   
    35    22    23 1   
    36    22    24 1   
    37    22    25 1   
    38    24    26 1   
    39    26    27 1   
    40    26    44 1   
    41    26    45 1   
    42    27    28 1   
    43    27    46 1   
    44    27    47 1   
    45    28    29 1   
    46    28    48 1   
    47    28    49 1   
    48    29    30 1   
    49    29    50 1   
    50    29    51 1   
    51    30    31 1   
    52    30    52 1   
    53    30    53 1   
    54    31    32 1   
    55    31    54 1   
    56    31    55 1   
    57    32    56 1   
    58    32    57 1   
@<TRIPOS>SUBSTRUCTURE
     1 UDH         1 TEMP              0 ****  ****    0 ROOT
