@<TRIPOS>MOLECULE
UDI
   16    15     1     0     0
SMALL
abcg2


@<TRIPOS>ATOM
      1 S6          29.2550    -0.8430    18.9210 sh         1 UDI      -0.484800
      2 C5          29.4820    -1.4720    17.2030 c3         1 UDI       0.099100
      3 C4          30.3230    -0.5040    16.3800 c3         1 UDI      -0.067400
      4 C3          29.6630     0.8560    16.1570 c3         1 UDI      -0.067400
      5 C2          30.5020     1.8230    15.3310 c3         1 UDI       0.099100
      6 S1          30.7260     1.1930    13.6140 sh         1 UDI      -0.484800
      7 H52         28.5000    -1.6070    16.7510 h1         1 UDI       0.059200
      8 H51         29.9750    -2.4400    17.2670 h1         1 UDI       0.059200
      9 H42         30.5120    -0.9840    15.4160 hc         1 UDI       0.058700
     10 H41         31.2990    -0.3650    16.8560 hc         1 UDI       0.058700
     11 H32         29.4770     1.3370    17.1210 hc         1 UDI       0.058700
     12 H31         28.6860     0.7170    15.6840 hc         1 UDI       0.058700
     13 H22         31.4850     1.9590    15.7810 h1         1 UDI       0.059200
     14 H21         30.0070     2.7900    15.2670 h1         1 UDI       0.059200
     15 HS1         31.3190     2.2900    13.1140 hs         1 UDI       0.216300
     16 HS6         28.6620    -1.9400    19.4190 hs         1 UDI       0.216300
@<TRIPOS>BOND
     1     1     2 1   
     2     1    16 1   
     3     2     3 1   
     4     2     7 1   
     5     2     8 1   
     6     3     4 1   
     7     3     9 1   
     8     3    10 1   
     9     4     5 1   
    10     4    11 1   
    11     4    12 1   
    12     5     6 1   
    13     5    13 1   
    14     5    14 1   
    15     6    15 1   
@<TRIPOS>SUBSTRUCTURE
     1 UDI         1 TEMP              0 ****  ****    0 ROOT
