@<TRIPOS>MOLECULE
UDI
   16    15     1     0     0
SMALL
No Charge or Current Charge


@<TRIPOS>ATOM
      1 S6          29.2890    -0.9100    19.0110 sh         1 UDI      -0.484800
      2 C5          29.5010    -1.4760    17.2570 c3         1 UDI       0.099100
      3 C4          30.3290    -0.5120    16.3810 c3         1 UDI      -0.067400
      4 C3          29.6550     0.8640    16.1540 c3         1 UDI      -0.067400
      5 C2          30.4830     1.8270    15.2780 c3         1 UDI       0.099100
      6 S1          30.6950     1.2610    13.5240 sh         1 UDI      -0.484800
      7 H52         28.5070    -1.6130    16.8100 h1         1 UDI       0.059200
      8 H51         29.9970    -2.4550    17.2760 h1         1 UDI       0.059200
      9 H42         30.5030    -0.9950    15.4120 hc         1 UDI       0.058700
     10 H41         31.3140    -0.3670    16.8430 hc         1 UDI       0.058700
     11 H32         29.4810     1.3460    17.1230 hc         1 UDI       0.058700
     12 H31         28.6700     0.7180    15.6930 hc         1 UDI       0.058700
     13 H22         31.4770     1.9640    15.7250 h1         1 UDI       0.059200
     14 H21         29.9870     2.8070    15.2590 h1         1 UDI       0.059200
     15 HS1         31.4290     2.3260    13.1140 hs         1 UDI       0.216300
     16 HS6         28.5550    -1.9740    19.4220 hs         1 UDI       0.216300
@<TRIPOS>BOND
     1     1     2 1   
     2     1    16 1   
     3     2     3 1   
     4     2     7 1   
     5     2     8 1   
     6     3     4 1   
     7     3     9 1   
     8     3    10 1   
     9     4     5 1   
    10     4    11 1   
    11     4    12 1   
    12     5     6 1   
    13     5    13 1   
    14     5    14 1   
    15     6    15 1   
@<TRIPOS>SUBSTRUCTURE
     1 UDI         1 TEMP              0 ****  ****    0 ROOT
