@<TRIPOS>MOLECULE
UDJ
   57    61     1     0     0
SMALL
No Charge or Current Charge


@<TRIPOS>ATOM
      1 C10        -25.1700    39.1800   -52.6000 ca         1 UDJ      -0.067000
      2 C15        -26.3090    37.1450   -54.7910 c5         1 UDJ      -0.005800
      3 C17        -26.1840    36.1180   -53.6330 c6         1 UDJ      -0.059400
      4 C20        -27.1430    32.8070   -55.7680 c6         1 UDJ      -0.032000
      5 C21        -25.8320    32.6390   -56.6270 c3         1 UDJ      -0.082100
      6 C22        -27.1290    31.7540   -54.6040 c6         1 UDJ      -0.063400
      7 C24        -28.4170    30.0650   -56.0550 c          1 UDJ       0.577100
      8 C26        -28.5650    31.1070   -57.1690 c6         1 UDJ      -0.182400
      9 C01        -28.4490    32.5570   -56.6190 c6         1 UDJ      -0.048700
     10 C02        -28.6310    33.6040   -57.7500 c6         1 UDJ      -0.069400
     11 C03        -28.6920    35.0350   -57.1700 c6         1 UDJ      -0.071400
     12 C04        -27.4450    35.3590   -56.3060 c6         1 UDJ      -0.042700
     13 C05        -27.5690    36.7510   -55.6330 c5         1 UDJ      -0.066700
     14 C06        -27.8310    38.0400   -56.4690 c5         1 UDJ      -0.043200
     15 C07        -27.5960    39.0970   -55.4020 c2         1 UDJ      -0.208200
     16 C08        -26.8170    38.5450   -54.4490 ce         1 UDJ      -0.070400
     17 C09        -26.4290    39.3040   -53.2190 ca         1 UDJ      -0.079800
     18 C11        -24.9000    39.9360   -51.4400 ca         1 UDJ      -0.165000
     19 C12        -25.8750    40.8040   -50.9060 ca         1 UDJ       0.332900
     20 C14        -27.3480    40.2190   -52.5900 ca         1 UDJ       0.340900
     21 C18        -26.0710    34.6640   -54.1920 c6         1 UDJ      -0.071400
     22 C19        -27.2430    34.2750   -55.1730 c6         1 UDJ      -0.047700
     23 C23        -27.2550    30.2780   -55.0770 c6         1 UDJ      -0.185400
     24 N13        -27.1000    40.9660   -51.4540 nb         1 UDJ      -0.666000
     25 O25        -29.2190    29.1500   -55.9150 o          1 UDJ      -0.521100
     26 H101       -24.4050    38.5230   -53.0000 ha         1 UDJ       0.120000
     27 H171       -25.3120    36.3410   -53.0040 hc         1 UDJ       0.045200
     28 H172       -27.0620    36.1890   -52.9770 hc         1 UDJ       0.045200
     29 H211       -24.9320    32.7300   -56.0090 hc         1 UDJ       0.033700
     30 H213       -25.7640    31.6610   -57.1120 hc         1 UDJ       0.033700
     31 H212       -25.7480    33.3810   -57.4270 hc         1 UDJ       0.033700
     32 H221       -26.2070    31.8450   -54.0140 hc         1 UDJ       0.046200
     33 H222       -27.9530    31.9670   -53.9080 hc         1 UDJ       0.046200
     34 H262       -29.5040    30.9390   -57.7120 hc         1 UDJ       0.066700
     35 H261       -27.7310    30.9540   -57.8640 hc         1 UDJ       0.066700
     36 H011       -29.3070    32.6860   -55.9410 hc         1 UDJ       0.049700
     37 H022       -29.5600    33.4010   -58.3000 hc         1 UDJ       0.042700
     38 H021       -27.8190    33.5270   -58.4870 hc         1 UDJ       0.042700
     39 H032       -28.7770    35.7560   -57.9940 hc         1 UDJ       0.041700
     40 H031       -29.6040    35.1440   -56.5670 hc         1 UDJ       0.041700
     41 H041       -26.5740    35.3760   -56.9720 hc         1 UDJ       0.053700
     42 H051       -28.4290    36.6320   -54.9600 hc         1 UDJ       0.049700
     43 H062       -27.1430    38.1500   -57.3150 hc         1 UDJ       0.053700
     44 H061       -28.8530    38.0780   -56.8630 hc         1 UDJ       0.053700
     45 H071       -28.0310    40.0980   -55.3790 ha         1 UDJ       0.190000
     46 H111       -23.9340    39.8550   -50.9490 ha         1 UDJ       0.122000
     47 H121       -25.6640    41.3870   -50.0110 h4         1 UDJ       0.019100
     48 H141       -28.3430    40.3540   -53.0130 h4         1 UDJ       0.018100
     49 H182       -26.0570    33.9810   -53.3330 hc         1 UDJ       0.039700
     50 H181       -25.0990    34.5420   -54.6830 hc         1 UDJ       0.039700
     51 H191       -28.1550    34.2990   -54.5590 hc         1 UDJ       0.044700
     52 H231       -27.3330    29.5760   -54.2370 hc         1 UDJ       0.065700
     53 H232       -26.3370    30.0480   -55.6320 hc         1 UDJ       0.065700
     54 C16        -24.9690    37.2310   -55.5950 c3         1 UDJ      -0.079100
     55 H162       -24.1260    37.4830   -54.9440 hc         1 UDJ       0.034700
     56 H163       -24.7110    36.2910   -56.0920 hc         1 UDJ       0.034700
     57 H161       -25.0080    38.0030   -56.3720 hc         1 UDJ       0.034700
@<TRIPOS>BOND
     1     1    17 ar  
     2     1    18 ar  
     3     1    26 1   
     4     2     3 1   
     5     2    13 1   
     6     2    16 1   
     7     2    54 1   
     8     3    21 1   
     9     3    27 1   
    10     3    28 1   
    11     4     5 1   
    12     4     6 1   
    13     4     9 1   
    14     4    22 1   
    15     5    29 1   
    16     5    30 1   
    17     5    31 1   
    18     6    23 1   
    19     6    32 1   
    20     6    33 1   
    21     7     8 1   
    22     7    23 1   
    23     7    25 2   
    24     8     9 1   
    25     8    34 1   
    26     8    35 1   
    27     9    10 1   
    28     9    36 1   
    29    10    11 1   
    30    10    37 1   
    31    10    38 1   
    32    11    12 1   
    33    11    39 1   
    34    11    40 1   
    35    12    13 1   
    36    12    22 1   
    37    12    41 1   
    38    13    14 1   
    39    13    42 1   
    40    14    15 1   
    41    14    43 1   
    42    14    44 1   
    43    15    16 2   
    44    15    45 1   
    45    16    17 1   
    46    17    20 ar  
    47    18    19 ar  
    48    18    46 1   
    49    19    24 ar  
    50    19    47 1   
    51    20    24 ar  
    52    20    48 1   
    53    21    22 1   
    54    21    49 1   
    55    21    50 1   
    56    22    51 1   
    57    23    52 1   
    58    23    53 1   
    59    54    55 1   
    60    54    56 1   
    61    54    57 1   
@<TRIPOS>SUBSTRUCTURE
     1 UDJ         1 TEMP              0 ****  ****    0 ROOT
