@<TRIPOS>MOLECULE
UDJ
   57    61     1     0     0
SMALL
bcc


@<TRIPOS>ATOM
      1 C10        -25.1420    39.1010   -52.6070 ca         1 UDJ      -0.085000
      2 C15        -26.4270    37.1030   -54.7340 c5         1 UDJ      -0.005800
      3 C17        -26.3210    36.0860   -53.6020 c6         1 UDJ      -0.059400
      4 C20        -27.1350    32.8590   -55.7670 c6         1 UDJ      -0.032000
      5 C21        -25.8280    32.7210   -56.5580 c3         1 UDJ      -0.082100
      6 C22        -27.1500    31.8230   -54.6320 c6         1 UDJ      -0.063400
      7 C24        -28.3270    30.1360   -56.1020 c          1 UDJ       0.577100
      8 C26        -28.4260    31.1620   -57.1970 c6         1 UDJ      -0.182400
      9 C01        -28.3790    32.5900   -56.6440 c6         1 UDJ      -0.048700
     10 C02        -28.5480    33.6170   -57.7560 c6         1 UDJ      -0.069400
     11 C03        -28.6480    35.0220   -57.1790 c6         1 UDJ      -0.071400
     12 C04        -27.4600    35.3570   -56.2850 c6         1 UDJ      -0.042700
     13 C05        -27.6360    36.6970   -55.5960 c5         1 UDJ      -0.066700
     14 C06        -27.9710    37.9650   -56.3800 c5         1 UDJ      -0.043200
     15 C07        -27.6310    39.0120   -55.3550 c2         1 UDJ      -0.158200
     16 C08        -26.8320    38.5340   -54.3910 ce         1 UDJ      -0.070400
     17 C09        -26.3790    39.2920   -53.2230 ca         1 UDJ      -0.145100
     18 C11        -24.7960    39.8730   -51.5100 ca         1 UDJ      -0.248300
     19 C12        -25.6970    40.8180   -51.0480 ca         1 UDJ       0.398200
     20 C14        -27.2120    40.2620   -52.6510 ca         1 UDJ       0.406200
     21 C18        -26.1950    34.6640   -54.1660 c6         1 UDJ      -0.071400
     22 C19        -27.2870    34.2880   -55.1810 c6         1 UDJ      -0.047700
     23 C23        -27.2110    30.3710   -55.1200 c6         1 UDJ      -0.185400
     24 N13        -26.8880    41.0080   -51.6060 nb         1 UDJ      -0.666000
     25 O25        -29.0810    29.1900   -56.0220 o          1 UDJ      -0.521100
     26 H101       -24.4410    38.3690   -52.9840 ha         1 UDJ       0.138000
     27 H171       -25.4670    36.2820   -52.9470 hc         1 UDJ       0.045200
     28 H172       -27.2170    36.1550   -52.9770 hc         1 UDJ       0.045200
     29 H211       -24.9640    32.7730   -55.8940 hc         1 UDJ       0.033700
     30 H213       -25.7590    31.7680   -57.0840 hc         1 UDJ       0.033700
     31 H212       -25.7040    33.5000   -57.3100 hc         1 UDJ       0.033700
     32 H221       -26.2640    31.9280   -54.0030 hc         1 UDJ       0.046200
     33 H222       -28.0130    32.0130   -53.9840 hc         1 UDJ       0.046200
     34 H262       -29.3460    31.0070   -57.7640 hc         1 UDJ       0.066700
     35 H261       -27.5950    30.9990   -57.8930 hc         1 UDJ       0.066700
     36 H011       -29.2480    32.6980   -55.9790 hc         1 UDJ       0.049700
     37 H022       -29.4500    33.3860   -58.3300 hc         1 UDJ       0.042700
     38 H021       -27.7130    33.5500   -58.4600 hc         1 UDJ       0.042700
     39 H032       -28.7310    35.7560   -57.9850 hc         1 UDJ       0.041700
     40 H031       -29.5700    35.0990   -56.5900 hc         1 UDJ       0.041700
     41 H041       -26.5620    35.3890   -56.9130 hc         1 UDJ       0.053700
     42 H051       -28.4710    36.5720   -54.8910 hc         1 UDJ       0.049700
     43 H062       -27.3640    38.0800   -57.2860 hc         1 UDJ       0.053700
     44 H061       -29.0150    38.0100   -56.6980 hc         1 UDJ       0.053700
     45 H071       -27.9850    40.0340   -55.4160 ha         1 UDJ       0.140000
     46 H111       -23.8390    39.7470   -51.0220 ha         1 UDJ       0.140000
     47 H121       -25.4530    41.4410   -50.1950 h4         1 UDJ       0.019100
     48 H141       -28.2030    40.4220   -53.0620 h4         1 UDJ       0.018100
     49 H182       -26.2270    33.9670   -53.3250 hc         1 UDJ       0.039700
     50 H181       -25.2040    34.5410   -54.6100 hc         1 UDJ       0.039700
     51 H191       -28.2370    34.2860   -54.6230 hc         1 UDJ       0.044700
     52 H231       -27.3110    29.6860   -54.2760 hc         1 UDJ       0.065700
     53 H232       -26.2740    30.1110   -55.6260 hc         1 UDJ       0.065700
     54 C16        -25.1200    37.1610   -55.5430 c3         1 UDJ      -0.079100
     55 H162       -24.3000    37.5480   -54.9350 hc         1 UDJ       0.034700
     56 H163       -24.8070    36.1830   -55.9060 hc         1 UDJ       0.034700
     57 H161       -25.2110    37.8160   -56.4110 hc         1 UDJ       0.034700
@<TRIPOS>BOND
     1     1    17 ar  
     2     1    18 ar  
     3     1    26 1   
     4     2     3 1   
     5     2    13 1   
     6     2    16 1   
     7     2    54 1   
     8     3    21 1   
     9     3    27 1   
    10     3    28 1   
    11     4     5 1   
    12     4     6 1   
    13     4     9 1   
    14     4    22 1   
    15     5    29 1   
    16     5    30 1   
    17     5    31 1   
    18     6    23 1   
    19     6    32 1   
    20     6    33 1   
    21     7     8 1   
    22     7    23 1   
    23     7    25 2   
    24     8     9 1   
    25     8    34 1   
    26     8    35 1   
    27     9    10 1   
    28     9    36 1   
    29    10    11 1   
    30    10    37 1   
    31    10    38 1   
    32    11    12 1   
    33    11    39 1   
    34    11    40 1   
    35    12    13 1   
    36    12    22 1   
    37    12    41 1   
    38    13    14 1   
    39    13    42 1   
    40    14    15 1   
    41    14    43 1   
    42    14    44 1   
    43    15    16 2   
    44    15    45 1   
    45    16    17 1   
    46    17    20 ar  
    47    18    19 ar  
    48    18    46 1   
    49    19    24 ar  
    50    19    47 1   
    51    20    24 ar  
    52    20    48 1   
    53    21    22 1   
    54    21    49 1   
    55    21    50 1   
    56    22    51 1   
    57    23    52 1   
    58    23    53 1   
    59    54    55 1   
    60    54    56 1   
    61    54    57 1   
@<TRIPOS>SUBSTRUCTURE
     1 UDJ         1 TEMP              0 ****  ****    0 ROOT
