@<TRIPOS>MOLECULE
UDK
   69    72     1     0     0
SMALL
bcc


@<TRIPOS>ATOM
      1 C10        -15.4720    25.0290   -13.8590 ca         1 UDK      -0.127500
      2 C13        -12.9560    22.9040   -12.0380 c          1 UDK       0.681700
      3 C15        -11.9580    21.1700   -10.5950 c3         1 UDK       0.079000
      4 C17        -10.5050    20.5320   -12.5810 c6         1 UDK      -0.065400
      5 C20        -12.1480    18.8910   -11.6740 c6         1 UDK       0.178800
      6 C22        -10.8770    16.8060   -11.6480 ca         1 UDK       0.739200
      7 C24        -10.6860    15.7090    -9.6680 ca         1 UDK       0.722900
      8 C26         -9.5470    14.8380   -11.4050 ca         1 UDK       0.734200
      9 C02        -21.5750    23.4040   -14.3230 c6         1 UDK      -0.063700
     10 C03        -20.9780    23.1400   -15.7020 c6         1 UDK      -0.072900
     11 C04        -19.7530    24.0040   -15.9570 c6         1 UDK       0.167300
     12 C06        -17.5340    24.5330   -15.2210 c3         1 UDK       0.210100
     13 C07        -16.3710    24.0980   -14.3670 ca         1 UDK      -0.062300
     14 C08        -16.1460    22.7480   -14.1060 ca         1 UDK      -0.127500
     15 C09        -15.0590    22.3430   -13.3500 ca         1 UDK      -0.094000
     16 C11        -14.3740    24.6280   -13.1140 ca         1 UDK      -0.094000
     17 C12        -14.1620    23.2810   -12.8370 ca         1 UDK      -0.155600
     18 C16        -11.1970    20.0390   -11.3110 c6         1 UDK       0.117800
     19 C18         -9.8680    19.3920   -13.3740 c6         1 UDK      -0.104400
     20 C19        -10.8820    18.2800   -13.6170 c6         1 UDK       0.208800
     21 C29        -10.0340    15.8540   -12.2290 ca         1 UDK      -0.508600
     22 C32        -19.2740    24.1360   -13.6140 c6         1 UDK       0.167300
     23 C33        -20.4770    23.2710   -13.2730 c6         1 UDK      -0.072900
     24 N05        -18.7470    23.8040   -14.9280 n3         1 UDK      -0.721600
     25 N14        -13.0410    21.7440   -11.3580 ns         1 UDK      -0.574900
     26 N21        -11.4380    17.8250   -12.3540 nh         1 UDK      -0.755300
     27 N23        -11.1990    16.7210   -10.3420 nb         1 UDK      -0.846000
     28 N25         -9.8810    14.7640   -10.0990 nb         1 UDK      -0.817000
     29 N27         -8.7210    13.8810   -11.8560 nu         1 UDK      -0.880900
     30 O30        -10.1890    19.5800   -10.4320 oh         1 UDK      -0.596800
     31 O31        -11.9670    23.6240   -12.0130 o          1 UDK      -0.598100
     32 H1         -15.6310    26.0850   -14.0460 ha         1 UDK       0.141500
     33 H2         -11.2510    21.9580   -10.3360 h1         1 UDK       0.066200
     34 H3         -12.3700    20.7800    -9.6610 h1         1 UDK       0.066200
     35 H4          -9.7560    21.2860   -12.3250 hc         1 UDK       0.059200
     36 H5         -11.2450    21.0270   -13.2160 hc         1 UDK       0.059200
     37 H6         -12.9250    19.2570   -12.3510 h1         1 UDK       0.067200
     38 H7         -12.6490    18.5040   -10.7880 h1         1 UDK       0.067200
     39 H8         -10.9600    15.6570    -8.6170 h5         1 UDK       0.038100
     40 H9          -7.5700    12.9390   -13.2810 h1         1 UDK       0.038033
     41 H10         -9.0520    13.6400   -13.9250 h1         1 UDK       0.038033
     42 H11         -7.6860    14.6830   -13.5070 h1         1 UDK       0.038033
     43 H15        -21.9300    24.4420   -14.3050 hc         1 UDK       0.042700
     44 H16        -21.7210    23.3300   -16.4810 hc         1 UDK       0.046450
     45 H17        -20.6970    22.0840   -15.7810 hc         1 UDK       0.046450
     46 H18        -20.0620    25.0630   -16.0160 h1         1 UDK       0.031700
     47 H19        -19.3160    23.7500   -16.9260 h1         1 UDK       0.031700
     48 H20        -17.2730    24.3510   -16.2690 h1         1 UDK       0.040700
     49 H21        -17.6660    25.6240   -15.1270 h1         1 UDK       0.040700
     50 H22        -16.8340    22.0090   -14.4950 ha         1 UDK       0.141500
     51 H23        -14.9070    21.2820   -13.1930 ha         1 UDK       0.139500
     52 H24        -13.6860    25.3710   -12.7340 ha         1 UDK       0.139500
     53 H25         -9.0040    18.9880   -12.8420 hc         1 UDK       0.055700
     54 H26         -9.5030    19.7670   -14.3330 hc         1 UDK       0.055700
     55 H27        -11.7090    18.6580   -14.2250 h1         1 UDK       0.053700
     56 H28        -10.4470    17.4560   -14.1770 h1         1 UDK       0.053700
     57 H29         -9.7620    15.8840   -13.2720 ha         1 UDK       0.146000
     58 H30        -18.4910    23.9880   -12.8680 h1         1 UDK       0.031700
     59 H31        -19.5630    25.2020   -13.5630 h1         1 UDK       0.031700
     60 H32        -20.1600    22.2250   -13.2040 hc         1 UDK       0.046450
     61 H33        -20.8570    23.5530   -12.2870 hc         1 UDK       0.046450
     62 H35        -13.9270    21.2670   -11.3280 hn         1 UDK       0.313500
     63 H36         -8.4240    13.1920   -11.1860 hn         1 UDK       0.452800
     64 H37        -10.5680    18.9110    -9.8480 ho         1 UDK       0.424000
     65 C01        -22.7550    22.4890   -14.0260 c3         1 UDK      -0.085100
     66 H12        -23.1800    22.7000   -13.0420 hc         1 UDK       0.033700
     67 C28         -8.2410    13.7900   -13.2080 c3         1 UDK       0.222100
     68 H13        -23.5500    22.6110   -14.7640 hc         1 UDK       0.033700
     69 H14        -22.4480    21.4410   -14.0360 hc         1 UDK       0.033700
@<TRIPOS>BOND
     1     1    13 ar  
     2     1    16 ar  
     3     1    32 1   
     4     2    17 1   
     5     2    25 1   
     6     2    31 2   
     7     3    18 1   
     8     3    25 1   
     9     3    33 1   
    10     3    34 1   
    11     4    18 1   
    12     4    19 1   
    13     4    35 1   
    14     4    36 1   
    15     5    18 1   
    16     5    26 1   
    17     5    37 1   
    18     5    38 1   
    19     6    21 ar  
    20     6    26 1   
    21     6    27 ar  
    22     7    27 ar  
    23     7    28 ar  
    24     7    39 1   
    25     8    21 ar  
    26     8    28 ar  
    27     8    29 1   
    28     9    10 1   
    29     9    23 1   
    30     9    43 1   
    31     9    65 1   
    32    10    11 1   
    33    10    44 1   
    34    10    45 1   
    35    11    24 1   
    36    11    46 1   
    37    11    47 1   
    38    12    13 1   
    39    12    24 1   
    40    12    48 1   
    41    12    49 1   
    42    13    14 ar  
    43    14    15 ar  
    44    14    50 1   
    45    15    17 ar  
    46    15    51 1   
    47    16    17 ar  
    48    16    52 1   
    49    18    30 1   
    50    19    20 1   
    51    19    53 1   
    52    19    54 1   
    53    20    26 1   
    54    20    55 1   
    55    20    56 1   
    56    21    57 1   
    57    22    23 1   
    58    22    24 1   
    59    22    58 1   
    60    22    59 1   
    61    23    60 1   
    62    23    61 1   
    63    25    62 1   
    64    29    63 1   
    65    29    67 1   
    66    30    64 1   
    67    40    67 1   
    68    41    67 1   
    69    42    67 1   
    70    65    66 1   
    71    65    68 1   
    72    65    69 1   
@<TRIPOS>SUBSTRUCTURE
     1 UDK         1 TEMP              0 ****  ****    0 ROOT
