@<TRIPOS>MOLECULE
UDK
   69    72     1     0     0
SMALL
No Charge or Current Charge


@<TRIPOS>ATOM
      1 C10        -15.6610    23.9910   -14.5680 ca         1 UDK      -0.109500
      2 C13        -13.2970    22.6880   -11.8490 c          1 UDK       0.614700
      3 C15        -12.1530    21.2800   -10.0820 c3         1 UDK       0.079000
      4 C17        -10.1520    21.1960   -11.7370 c6         1 UDK      -0.065400
      5 C20        -11.3910    19.0670   -11.1820 c6         1 UDK       0.178800
      6 C22        -10.1770    16.8640   -11.4190 ca         1 UDK       0.410900
      7 C24        -10.5540    15.0730   -10.0370 ca         1 UDK       0.196900
      8 C26         -9.7890    14.6160   -12.1340 ca         1 UDK       0.405900
      9 C02        -21.7800    24.1580   -14.4780 c6         1 UDK      -0.063700
     10 C03        -21.5560    22.9350   -15.4030 c6         1 UDK      -0.072900
     11 C04        -20.1640    22.9920   -16.0800 c6         1 UDK       0.167300
     12 C06        -17.7280    23.0300   -15.7120 c3         1 UDK       0.210100
     13 C07        -16.5800    22.9350   -14.7080 ca         1 UDK      -0.062300
     14 C08        -16.4290    21.7870   -13.9110 ca         1 UDK      -0.109500
     15 C09        -15.3770    21.6910   -12.9830 ca         1 UDK      -0.076000
     16 C11        -14.6070    23.9000   -13.6430 ca         1 UDK      -0.076000
     17 C12        -14.4480    22.7500   -12.8350 ca         1 UDK      -0.155600
     18 C16        -10.9390    20.4500   -10.6190 c6         1 UDK       0.141000
     19 C18         -8.9620    20.3440   -12.2610 c6         1 UDK      -0.104400
     20 C19         -9.4030    18.9170   -12.6780 c6         1 UDK       0.208800
     21 C29         -9.7690    15.9810   -12.4280 ca         1 UDK      -0.360000
     22 C32        -19.2410    24.2830   -14.1990 c6         1 UDK       0.167300
     23 C33        -20.6070    24.2630   -13.4710 c6         1 UDK      -0.072900
     24 N05        -19.0680    23.0900   -15.0780 n3         1 UDK      -0.721600
     25 N14        -13.2090    21.5490   -11.0750 ns         1 UDK      -0.507900
     26 N21        -10.1940    18.2630   -11.5960 nh         1 UDK      -0.755300
     27 N23        -10.5730    16.4080   -10.2170 nb         1 UDK      -0.320000
     28 N25        -10.1790    14.1500   -10.9420 nb         1 UDK      -0.291000
     29 N27         -9.4120    13.6540   -13.0530 nu         1 UDK      -0.936100
     30 O30        -10.0500    20.1980    -9.5230 oh         1 UDK      -0.659000
     31 O31        -12.4840    23.5950   -11.7400 o          1 UDK      -0.598100
     32 H1         -15.7640    24.8870   -15.1760 ha         1 UDK       0.123500
     33 H2         -11.7810    22.2330    -9.6820 h1         1 UDK       0.066200
     34 H3         -12.6070    20.7320    -9.2460 h1         1 UDK       0.066200
     35 H4          -9.7840    22.1620   -11.3650 hc         1 UDK       0.059200
     36 H5         -10.8210    21.4220   -12.5780 hc         1 UDK       0.059200
     37 H6         -12.0590    19.2190   -12.0430 h1         1 UDK       0.067200
     38 H7         -11.9800    18.5470   -10.4120 h1         1 UDK       0.067200
     39 H8         -10.8740    14.7050    -9.0640 h5         1 UDK       0.038100
     40 H9          -8.7130    12.9060   -14.9140 h1         1 UDK       0.038033
     41 H10         -9.7030    14.3820   -15.0270 h1         1 UDK       0.038033
     42 H11         -8.0240    14.4770   -14.4340 h1         1 UDK       0.038033
     43 H15        -21.7920    25.0670   -15.0970 hc         1 UDK       0.042700
     44 H16        -22.3370    22.8960   -16.1750 hc         1 UDK       0.046450
     45 H17        -21.6400    22.0050   -14.8250 hc         1 UDK       0.046450
     46 H18        -20.1330    23.8560   -16.7620 h1         1 UDK       0.031700
     47 H19        -20.0370    22.0900   -16.6960 h1         1 UDK       0.031700
     48 H20        -17.6690    22.1500   -16.3670 h1         1 UDK       0.040700
     49 H21        -17.5760    23.9100   -16.3520 h1         1 UDK       0.040700
     50 H22        -17.1370    20.9670   -14.0090 ha         1 UDK       0.123500
     51 H23        -15.3010    20.7840   -12.3900 ha         1 UDK       0.121500
     52 H24        -13.9120    24.7320   -13.5560 ha         1 UDK       0.121500
     53 H25         -8.1860    20.2710   -11.4880 hc         1 UDK       0.055700
     54 H26         -8.4910    20.8460   -13.1170 hc         1 UDK       0.055700
     55 H27        -10.0020    18.9730   -13.6000 h1         1 UDK       0.053700
     56 H28         -8.4980    18.3340   -12.9070 h1         1 UDK       0.053700
     57 H29         -9.4640    16.3370   -13.4040 ha         1 UDK       0.128000
     58 H30        -18.4470    24.3220   -13.4390 h1         1 UDK       0.031700
     59 H31        -19.1640    25.2060   -14.7930 h1         1 UDK       0.031700
     60 H32        -20.6340    23.4150   -12.7730 hc         1 UDK       0.046450
     61 H33        -20.7110    25.1720   -12.8630 hc         1 UDK       0.046450
     62 H35        -13.9380    20.8590   -11.2000 hn         1 UDK       0.313500
     63 H36         -9.4710    12.6900   -12.7180 hn         1 UDK       0.508000
     64 H37         -9.6020    19.3620    -9.7940 ho         1 UDK       0.463000
     65 C01        -23.1540    24.0960   -13.7610 c3         1 UDK      -0.085100
     66 H12        -23.3130    24.9810   -13.1340 hc         1 UDK       0.033700
     67 C28         -8.9370    13.8670   -14.4320 c3         1 UDK       0.222100
     68 H13        -23.9760    24.0520   -14.4850 hc         1 UDK       0.033700
     69 H14        -23.2290    23.2110   -13.1160 hc         1 UDK       0.033700
@<TRIPOS>BOND
     1     1    13 ar  
     2     1    16 ar  
     3     1    32 1   
     4     2    17 1   
     5     2    25 1   
     6     2    31 2   
     7     3    18 1   
     8     3    25 1   
     9     3    33 1   
    10     3    34 1   
    11     4    18 1   
    12     4    19 1   
    13     4    35 1   
    14     4    36 1   
    15     5    18 1   
    16     5    26 1   
    17     5    37 1   
    18     5    38 1   
    19     6    21 ar  
    20     6    26 1   
    21     6    27 ar  
    22     7    27 ar  
    23     7    28 ar  
    24     7    39 1   
    25     8    21 ar  
    26     8    28 ar  
    27     8    29 1   
    28     9    10 1   
    29     9    23 1   
    30     9    43 1   
    31     9    65 1   
    32    10    11 1   
    33    10    44 1   
    34    10    45 1   
    35    11    24 1   
    36    11    46 1   
    37    11    47 1   
    38    12    13 1   
    39    12    24 1   
    40    12    48 1   
    41    12    49 1   
    42    13    14 ar  
    43    14    15 ar  
    44    14    50 1   
    45    15    17 ar  
    46    15    51 1   
    47    16    17 ar  
    48    16    52 1   
    49    18    30 1   
    50    19    20 1   
    51    19    53 1   
    52    19    54 1   
    53    20    26 1   
    54    20    55 1   
    55    20    56 1   
    56    21    57 1   
    57    22    23 1   
    58    22    24 1   
    59    22    58 1   
    60    22    59 1   
    61    23    60 1   
    62    23    61 1   
    63    25    62 1   
    64    29    63 1   
    65    29    67 1   
    66    30    64 1   
    67    40    67 1   
    68    41    67 1   
    69    42    67 1   
    70    65    66 1   
    71    65    68 1   
    72    65    69 1   
@<TRIPOS>SUBSTRUCTURE
     1 UDK         1 TEMP              0 ****  ****    0 ROOT
