@<TRIPOS>MOLECULE
UDM
   66    68     1     0     0
SMALL
No Charge or Current Charge


@<TRIPOS>ATOM
      1 C1           2.4080    20.4350    13.8500 c6         1 UDM       0.200300
      2 C2           1.6490    19.2880    14.6110 c6         1 UDM       0.089700
      3 C3           0.1980    19.1400    14.0350 c6         1 UDM       0.155300
      4 C4          -0.5510    20.5050    14.0990 c6         1 UDM       0.105300
      5 C5           0.2910    21.5920    13.3680 c6         1 UDM       0.102300
      6 C6          -0.3120    23.0230    13.4890 c3         1 UDM       0.169600
      7 C7           2.4760    17.0950    15.6040 c          1 UDM       0.612100
      8 C8           3.3120    15.8630    15.2760 c3         1 UDM      -0.177100
      9 N2           2.4040    18.0180    14.5940 ns         1 UDM      -0.504900
     10 CB           2.7110    20.2030    12.3430 c3         1 UDM      -0.500400
     11 O3          -0.5760    18.1540    14.7390 oh         1 UDM      -0.649000
     12 O4          -1.8720    20.3720    13.5300 oh         1 UDM      -0.723000
     13 O5           1.6330    21.6560    13.9360 os         1 UDM      -0.483000
     14 O6           0.6970    24.0040    13.2260 oh         1 UDM      -0.719000
     15 O7           1.9350    17.2500    16.6900 o          1 UDM      -0.680100
     16 N1          -0.1130    18.9490     9.5820 n          1 UDM      -0.307000
     17 C9          -1.4850    19.1470     9.8310 c          1 UDM       0.622000
     18 N3          -1.8980    20.4400     9.9200 ns         1 UDM      -0.475500
     19 C10         -1.1540    21.5670     9.8000 c          1 UDM       0.593200
     20 C11          0.2580    21.3090     9.5480 cc         1 UDM      -0.403200
     21 C12          0.7580    20.0310     9.4480 cd         1 UDM       0.030600
     22 O2          -2.2860    18.2350     9.9510 o          1 UDM      -0.590000
     23 O8          -1.6400    22.6790     9.8960 o          1 UDM      -0.565000
     24 C1D          0.3880    17.5560     9.4590 c5         1 UDM       0.305700
     25 C2D          0.7790    17.3010     7.9680 c5         1 UDM       0.083300
     26 O9          -0.3390    17.0870     7.0700 oh         1 UDM      -0.727000
     27 C3D          1.6090    15.9960     8.1520 c5         1 UDM       0.149300
     28 C4D          2.2650    16.2040     9.5710 c5         1 UDM       0.148300
     29 O4D          1.6330    17.3800    10.1450 os         1 UDM      -0.451000
     30 O3D          0.7000    14.8890     8.1160 oh         1 UDM      -0.733000
     31 C5D          3.8150    16.3420     9.5480 c3         1 UDM       0.219600
     32 O5D          4.2100    17.5190     8.8120 os         1 UDM      -0.654400
     33 PA           5.1240    18.6350     9.5310 p5         1 UDM       1.471800
     34 O1A          6.2360    17.9910    10.2890 o          1 UDM      -0.843000
     35 O2A          5.6510    19.5850     8.5100 o          1 UDM      -0.843000
     36 O3A          3.9920    19.3320    10.3670 os         1 UDM      -0.712800
     37 PB           4.2570    19.3530    11.9140 p5         1 UDM       1.501400
     38 O1B          4.2120    18.0120    12.5650 o          1 UDM      -0.845500
     39 O2B          5.3900    20.2290    12.3350 o          1 UDM      -0.845500
     40 H1           3.3630    20.6200    14.3660 h1         1 UDM       0.087700
     41 H2           1.5610    19.6060    15.6590 h1         1 UDM       0.067700
     42 H3           0.2690    18.8450    12.9780 h1         1 UDM       0.070700
     43 H4          -0.6340    20.7960    15.1570 h1         1 UDM       0.035700
     44 H5           0.3580    21.3460    12.2990 h1         1 UDM       0.076700
     45 H6'1        -0.7030    23.1540    14.5070 h1         1 UDM       0.032200
     46 H6'2        -1.1510    23.1250    12.7880 h1         1 UDM       0.032200
     47 H8'1         2.9320    15.4080    14.3550 hc         1 UDM       0.054700
     48 H8'2         3.3470    15.1420    16.1010 hc         1 UDM       0.054700
     49 H8'3         4.3160    16.1830    14.9780 hc         1 UDM       0.054700
     50 H11          2.9740    17.8110    13.7710 hn         1 UDM       0.392500
     51 HB1          2.7930    21.1560    11.8130 hc         1 UDM       0.068200
     52 HB2          1.9290    19.6200    11.8560 hc         1 UDM       0.068200
     53 H12         -1.5070    18.3780    14.5160 ho         1 UDM       0.437000
     54 H7          -2.4290    21.0950    13.9010 ho         1 UDM       0.490000
     55 H6           1.5300    23.5200    13.4580 ho         1 UDM       0.514000
     56 HN3         -2.8780    20.5750    10.1040 hn         1 UDM       0.317500
     57 H13          0.8880    22.1870     9.4560 ha         1 UDM       0.239000
     58 H14          1.8040    19.7720     9.2800 h4         1 UDM       0.272000
     59 H1D         -0.3650    16.8450     9.8240 h2         1 UDM       0.090700
     60 H2D          1.4360    18.1030     7.5990 h1         1 UDM       0.106700
     61 H9          -0.7600    17.9650     6.9040 ho         1 UDM       0.512000
     62 H3D          2.3700    15.9030     7.3640 h1         1 UDM       0.092700
     63 H4D          2.0250    15.3470    10.2150 h1         1 UDM       0.066700
     64 H10         -0.0560    15.2640     7.5930 ho         1 UDM       0.510000
     65 H5'1         4.2390    15.4430     9.0830 h1         1 UDM       0.062700
     66 H5'2         4.1720    16.3650    10.5860 h1         1 UDM       0.062700
@<TRIPOS>BOND
     1     1     2 1   
     2     1    10 1   
     3     1    13 1   
     4     1    40 1   
     5     2     3 1   
     6     2     9 1   
     7     2    41 1   
     8     3     4 1   
     9     3    11 1   
    10     3    42 1   
    11     4     5 1   
    12     4    12 1   
    13     4    43 1   
    14     5     6 1   
    15     5    13 1   
    16     5    44 1   
    17     6    14 1   
    18     6    45 1   
    19     6    46 1   
    20     7     8 1   
    21     7     9 1   
    22     7    15 2   
    23     8    47 1   
    24     8    48 1   
    25     8    49 1   
    26     9    50 1   
    27    10    37 1   
    28    10    51 1   
    29    10    52 1   
    30    11    53 1   
    31    12    54 1   
    32    14    55 1   
    33    16    17 1   
    34    16    21 1   
    35    16    24 1   
    36    17    18 1   
    37    17    22 2   
    38    18    19 1   
    39    18    56 1   
    40    19    20 1   
    41    19    23 2   
    42    20    21 2   
    43    20    57 1   
    44    21    58 1   
    45    24    25 1   
    46    24    29 1   
    47    24    59 1   
    48    25    26 1   
    49    25    27 1   
    50    25    60 1   
    51    26    61 1   
    52    27    28 1   
    53    27    30 1   
    54    27    62 1   
    55    28    29 1   
    56    28    31 1   
    57    28    63 1   
    58    30    64 1   
    59    31    32 1   
    60    31    65 1   
    61    31    66 1   
    62    32    33 1   
    63    33    34 1   
    64    33    35 1   
    65    33    36 1   
    66    36    37 1   
    67    37    38 1   
    68    37    39 1   
@<TRIPOS>SUBSTRUCTURE
     1 UDM         1 TEMP              0 ****  ****    0 ROOT
