@<TRIPOS>MOLECULE
UDM
   66    68     1     0     0
SMALL
abcg2


@<TRIPOS>ATOM
      1 C1           2.6640    20.3220    14.0570 c6         1 UDM       0.200300
      2 C2           1.9270    19.1170    14.6740 c6         1 UDM       0.089700
      3 C3           0.6560    18.8080    13.8800 c6         1 UDM       0.155300
      4 C4          -0.2160    20.0580    13.7960 c6         1 UDM       0.105300
      5 C5           0.6060    21.2370    13.2710 c6         1 UDM       0.102300
      6 C6          -0.1510    22.5530    13.2960 c3         1 UDM       0.169600
      7 C7           2.9070    17.2680    15.9500 c          1 UDM       0.612100
      8 C8           3.8850    16.1180    15.8750 c3         1 UDM      -0.177100
      9 N2           2.7840    17.9700    14.8110 ns         1 UDM      -0.504900
     10 CB           3.2560    20.1260    12.6560 c3         1 UDM      -0.500400
     11 O3          -0.0180    17.7520    14.5140 oh         1 UDM      -0.649000
     12 O4          -1.2980    19.7580    12.9380 oh         1 UDM      -0.723000
     13 O5           1.7600    21.4170    14.0690 os         1 UDM      -0.483000
     14 O6           0.5590    23.5970    12.6750 oh         1 UDM      -0.719000
     15 O7           2.2870    17.5060    16.9800 o          1 UDM      -0.680100
     16 N1          -0.6740    19.1330     9.0260 n          1 UDM      -0.307000
     17 C9          -2.0160    19.4420     8.8930 c          1 UDM       0.622000
     18 N3          -2.3330    20.7440     9.1800 ns         1 UDM      -0.475500
     19 C10         -1.4880    21.7610     9.5980 c          1 UDM       0.593200
     20 C11         -0.1100    21.3490     9.7050 cc         1 UDM      -0.403200
     21 C12          0.2250    20.0770     9.4430 cd         1 UDM       0.030600
     22 O2          -2.8570    18.6390     8.5490 o          1 UDM      -0.590000
     23 O8          -1.9250    22.8700     9.8390 o          1 UDM      -0.565000
     24 C1D         -0.2370    17.7590     8.8330 c5         1 UDM       0.305700
     25 C2D          0.8850    17.5820     7.8010 c5         1 UDM       0.083300
     26 O9           0.4200    17.4360     6.4920 oh         1 UDM      -0.727000
     27 C3D          1.5380    16.2950     8.3010 c5         1 UDM       0.149300
     28 C4D          1.3910    16.4170     9.8170 c5         1 UDM       0.148300
     29 O4D          0.2690    17.2760    10.0450 os         1 UDM      -0.451000
     30 O3D          0.8160    15.1600     7.8900 oh         1 UDM      -0.733000
     31 C5D          2.6090    16.9410    10.5450 c3         1 UDM       0.219600
     32 O5D          2.9930    18.1990    10.0390 os         1 UDM      -0.654400
     33 PA           4.5210    18.5930     9.5660 p5         1 UDM       1.471800
     34 O1A          5.3230    17.3490     9.3510 o          1 UDM      -0.843000
     35 O2A          4.3560    19.6200     8.4920 o          1 UDM      -0.843000
     36 O3A          5.0980    19.4080    10.8770 os         1 UDM      -0.712800
     37 PB           4.8460    19.2210    12.4960 p5         1 UDM       1.501400
     38 O1B          4.6530    17.7460    12.7930 o          1 UDM      -0.845500
     39 O2B          5.9370    19.9750    13.1970 o          1 UDM      -0.845500
     40 H1           3.4680    20.6110    14.7400 h1         1 UDM       0.087700
     41 H2           1.6230    19.4210    15.6790 h1         1 UDM       0.067700
     42 H3           0.9350    18.5210    12.8530 h1         1 UDM       0.070700
     43 H4          -0.5710    20.2950    14.8100 h1         1 UDM       0.035700
     44 H5           0.8790    21.0240    12.2290 h1         1 UDM       0.076700
     45 H6'1        -0.4140    22.7970    14.3350 h1         1 UDM       0.032200
     46 H6'2        -1.0860    22.4430    12.7440 h1         1 UDM       0.032200
     47 H8'1         3.3380    15.1750    15.9140 hc         1 UDM       0.054700
     48 H8'2         4.5460    16.1440    16.7400 hc         1 UDM       0.054700
     49 H8'3         4.4900    16.1250    14.9710 hc         1 UDM       0.054700
     50 H11          3.4040    17.7340    14.0250 hn         1 UDM       0.392500
     51 HB1          3.4490    21.1260    12.2560 hc         1 UDM       0.068200
     52 HB2          2.5370    19.6650    11.9780 hc         1 UDM       0.068200
     53 H12         -0.8090    17.5590    14.0000 ho         1 UDM       0.437000
     54 H7          -2.0600    20.2860    13.1890 ho         1 UDM       0.490000
     55 H6           1.4050    23.6890    13.1270 ho         1 UDM       0.514000
     56 HN3         -3.3140    20.9770     9.0860 hn         1 UDM       0.317500
     57 H13          0.6320    22.0570    10.0390 ha         1 UDM       0.239000
     58 H14          1.2450    19.7380     9.5620 h4         1 UDM       0.272000
     59 H1D         -1.1150    17.1960     8.5110 h2         1 UDM       0.090700
     60 H2D          1.6120    18.3970     7.8780 h1         1 UDM       0.106700
     61 H9           0.2260    18.3050     6.1270 ho         1 UDM       0.512000
     62 H3D          2.5920    16.2320     8.0000 h1         1 UDM       0.092700
     63 H4D          1.1700    15.4300    10.2400 h1         1 UDM       0.066700
     64 H10          0.7700    15.1600     6.9280 ho         1 UDM       0.510000
     65 H5'1         3.4100    16.2040    10.4500 h1         1 UDM       0.062700
     66 H5'2         2.3760    17.0290    11.6090 h1         1 UDM       0.062700
@<TRIPOS>BOND
     1     1     2 1   
     2     1    10 1   
     3     1    13 1   
     4     1    40 1   
     5     2     3 1   
     6     2     9 1   
     7     2    41 1   
     8     3     4 1   
     9     3    11 1   
    10     3    42 1   
    11     4     5 1   
    12     4    12 1   
    13     4    43 1   
    14     5     6 1   
    15     5    13 1   
    16     5    44 1   
    17     6    14 1   
    18     6    45 1   
    19     6    46 1   
    20     7     8 1   
    21     7     9 1   
    22     7    15 2   
    23     8    47 1   
    24     8    48 1   
    25     8    49 1   
    26     9    50 1   
    27    10    37 1   
    28    10    51 1   
    29    10    52 1   
    30    11    53 1   
    31    12    54 1   
    32    14    55 1   
    33    16    17 1   
    34    16    21 1   
    35    16    24 1   
    36    17    18 1   
    37    17    22 2   
    38    18    19 1   
    39    18    56 1   
    40    19    20 1   
    41    19    23 2   
    42    20    21 2   
    43    20    57 1   
    44    21    58 1   
    45    24    25 1   
    46    24    29 1   
    47    24    59 1   
    48    25    26 1   
    49    25    27 1   
    50    25    60 1   
    51    26    61 1   
    52    27    28 1   
    53    27    30 1   
    54    27    62 1   
    55    28    29 1   
    56    28    31 1   
    57    28    63 1   
    58    30    64 1   
    59    31    32 1   
    60    31    65 1   
    61    31    66 1   
    62    32    33 1   
    63    33    34 1   
    64    33    35 1   
    65    33    36 1   
    66    36    37 1   
    67    37    38 1   
    68    37    39 1   
@<TRIPOS>SUBSTRUCTURE
     1 UDM         1 TEMP              0 ****  ****    0 ROOT
