@<TRIPOS>MOLECULE
UDN
   66    68     1     0     0
SMALL
bcc


@<TRIPOS>ATOM
      1 C1           4.4370     0.0540    -0.2620 c6         1 UDN       0.171100
      2 C2           4.9520    -1.3930    -0.1350 c6         1 UDN       0.077700
      3 C3           4.8840    -1.8500     1.3200 c6         1 UDN       0.130100
      4 C4           5.6520    -0.8670     2.2030 c6         1 UDN       0.080100
      5 C5           5.1170     0.5510     1.9690 c6         1 UDN       0.120100
      6 C6           5.9330     1.5650     2.7450 c3         1 UDN       0.152400
      7 C8           3.8400    -3.9900    -2.6600 c3         1 UDN      -0.179100
      8 N2           4.2220    -2.2900    -0.9970 ns         1 UDN      -0.536900
      9 CB           2.9230     0.1680    -0.0890 c3         1 UDN      -0.305600
     10 O3           5.3870    -3.1570     1.3950 oh         1 UDN      -0.584800
     11 O4           7.0220    -0.9840     1.8940 oh         1 UDN      -0.578800
     12 O5           5.1730     0.8930     0.6020 os         1 UDN      -0.368600
     13 O6           5.3210     2.8290     2.6850 oh         1 UDN      -0.515800
     14 O7           5.9590    -2.9520    -2.2900 o          1 UDN      -0.635100
     15 N1          -5.3780    -1.3250    -0.0360 n          1 UDN      -0.380000
     16 C9          -4.9070    -1.6320     1.2270 c          1 UDN       0.825500
     17 N3          -5.0150    -2.9530     1.5730 ns         1 UDN      -0.606500
     18 C10         -5.5370    -3.9970     0.8230 c          1 UDN       0.740700
     19 C11         -5.9980    -3.5880    -0.4800 cc         1 UDN      -0.368200
     20 C12         -5.8940    -2.3000    -0.8420 cd         1 UDN       0.087600
     21 O2          -4.4390    -0.8060     1.9820 o          1 UDN      -0.607500
     22 O8          -5.5710    -5.1270     1.2750 o          1 UDN      -0.639500
     23 C1D         -5.3070     0.0490    -0.5310 c5         1 UDN       0.320500
     24 C2D         -6.1440     1.0610     0.2620 c5         1 UDN       0.044100
     25 O9          -7.4360     1.1110    -0.2750 oh         1 UDN      -0.601800
     26 C3D         -5.3260     2.3410     0.0700 c5         1 UDN       0.084100
     27 C4D         -3.9160     1.7770     0.1210 c5         1 UDN       0.140100
     28 O4D         -3.9970     0.5120    -0.5430 os         1 UDN      -0.340600
     29 O3D         -5.5740     2.9100    -1.1900 oh         1 UDN      -0.566800
     30 C5D         -2.8570     2.6300    -0.5330 c3         1 UDN       0.212400
     31 O5D         -1.6000     2.0330    -0.2980 os         1 UDN      -0.552200
     32 PA          -0.3080     2.6310    -1.1350 p5         1 UDN       1.458800
     33 O1A         -0.5130     2.3760    -2.5980 o          1 UDN      -0.853500
     34 O2A         -0.0080     4.0200    -0.6570 o          1 UDN      -0.853500
     35 O3A          0.7450     1.5490    -0.5260 os         1 UDN      -0.715800
     36 PB           2.3260     1.9010    -0.0980 p5         1 UDN       1.326600
     37 O1B          2.3130     2.4680     1.2910 o          1 UDN      -0.837000
     38 O2B          2.9690     2.6460    -1.2360 o          1 UDN      -0.837000
     39 H1           4.6770     0.4060    -1.2680 h1         1 UDN       0.106700
     40 H2           5.9920    -1.4100    -0.4630 h1         1 UDN       0.098700
     41 H3           3.8340    -1.8200     1.6480 h1         1 UDN       0.045700
     42 H4           5.4640    -1.1270     3.2550 h1         1 UDN       0.007700
     43 H5           4.0810     0.5930     2.3340 h1         1 UDN       0.095700
     44 H6           6.0130     1.2050     3.7810 h1         1 UDN      -0.008800
     45 H7           6.9520     1.5970     2.3380 h1         1 UDN      -0.008800
     46 H8           4.1080    -5.0110    -2.3880 hc         1 UDN       0.049033
     47 H9           2.7930    -3.8350    -2.4050 hc         1 UDN       0.049033
     48 H10          3.9520    -3.9010    -3.7400 hc         1 UDN       0.049033
     49 H11          3.2570    -2.4680    -0.7690 hn         1 UDN       0.314500
     50 H12          2.4580    -0.3540    -0.9290 hc         1 UDN       0.047700
     51 H13          2.5700    -0.3300     0.8190 hc         1 UDN       0.047700
     52 H14          5.2590    -3.4800     2.2930 ho         1 UDN       0.380000
     53 H15          7.5370    -0.6530     2.6350 ho         1 UDN       0.382000
     54 H16          5.9000     3.4500     3.1370 ho         1 UDN       0.371000
     55 H17         -4.6710    -3.1840     2.4970 hn         1 UDN       0.334500
     56 H18         -6.4150    -4.3180    -1.1570 ha         1 UDN       0.160000
     57 H19         -6.2250    -1.9660    -1.8150 h4         1 UDN       0.155000
     58 H20         -5.6960    -0.0070    -1.5540 h2         1 UDN       0.073700
     59 H21         -6.1610     0.8070     1.3250 h1         1 UDN       0.067700
     60 H22         -8.0370     1.4520     0.3960 ho         1 UDN       0.404000
     61 H23         -5.4910     3.0610     0.8820 h1         1 UDN       0.050700
     62 H24         -3.6470     1.6180     1.1720 h1         1 UDN       0.080700
     63 H25         -6.5230     2.8580    -1.3550 ho         1 UDN       0.395000
     64 H26         -3.0580     2.7260    -1.6040 h1         1 UDN       0.033700
     65 H27         -2.9040     3.6350    -0.0950 h1         1 UDN       0.033700
     66 C7           4.7800    -3.0310    -1.9720 c          1 UDN       0.676100
@<TRIPOS>BOND
     1     1     2 1   
     2     1     9 1   
     3     1    12 1   
     4     1    39 1   
     5     2     3 1   
     6     2     8 1   
     7     2    40 1   
     8     3     4 1   
     9     3    10 1   
    10     3    41 1   
    11     4     5 1   
    12     4    11 1   
    13     4    42 1   
    14     5     6 1   
    15     5    12 1   
    16     5    43 1   
    17     6    13 1   
    18     6    44 1   
    19     6    45 1   
    20     7    46 1   
    21     7    47 1   
    22     7    48 1   
    23     7    66 1   
    24     8    49 1   
    25     8    66 1   
    26     9    36 1   
    27     9    50 1   
    28     9    51 1   
    29    10    52 1   
    30    11    53 1   
    31    13    54 1   
    32    14    66 2   
    33    15    16 1   
    34    15    20 1   
    35    15    23 1   
    36    16    17 1   
    37    16    21 2   
    38    17    18 1   
    39    17    55 1   
    40    18    19 1   
    41    18    22 2   
    42    19    20 2   
    43    19    56 1   
    44    20    57 1   
    45    23    24 1   
    46    23    28 1   
    47    23    58 1   
    48    24    25 1   
    49    24    26 1   
    50    24    59 1   
    51    25    60 1   
    52    26    27 1   
    53    26    29 1   
    54    26    61 1   
    55    27    28 1   
    56    27    30 1   
    57    27    62 1   
    58    29    63 1   
    59    30    31 1   
    60    30    64 1   
    61    30    65 1   
    62    31    32 1   
    63    32    33 1   
    64    32    34 1   
    65    32    35 1   
    66    35    36 1   
    67    36    37 1   
    68    36    38 1   
@<TRIPOS>SUBSTRUCTURE
     1 UDN         1 TEMP              0 ****  ****    0 ROOT
