@<TRIPOS>MOLECULE
UDN
   66    68     1     0     0
SMALL
No Charge or Current Charge


@<TRIPOS>ATOM
      1 C1           4.6480     0.3610     0.2480 c6         1 UDN       0.194300
      2 C2           5.8750    -0.3000    -0.4700 c6         1 UDN       0.077700
      3 C3           6.2230    -1.6610     0.2190 c6         1 UDN       0.153300
      4 C4           6.4790    -1.4510     1.7410 c6         1 UDN       0.103300
      5 C5           5.2290    -0.7470     2.3720 c6         1 UDN       0.143300
      6 C6           5.4350    -0.4310     3.8930 c3         1 UDN       0.175600
      7 C8           5.4870     0.0620    -4.3000 c3         1 UDN      -0.179100
      8 N2           5.6540    -0.4760    -1.9220 ns         1 UDN      -0.469900
      9 CB           3.2930    -0.3790     0.0260 c3         1 UDN      -0.463400
     10 O3           7.3920    -2.2490    -0.3730 oh         1 UDN      -0.647000
     11 O4           7.7020    -0.6950     1.9150 oh         1 UDN      -0.701000
     12 O5           4.9250     0.4910     1.6670 os         1 UDN      -0.415000
     13 O6           4.3090     0.2110     4.5080 oh         1 UDN      -0.638000
     14 O7           5.9350     1.6870    -2.5710 o          1 UDN      -0.635100
     15 N1          -6.6460    -0.4020     1.0050 n          1 UDN      -0.313000
     16 C9          -6.0160     0.3400     2.0300 c          1 UDN       0.616000
     17 N3          -6.6660     0.3780     3.2270 ns         1 UDN      -0.472500
     18 C10         -7.8480    -0.1950     3.5610 c          1 UDN       0.598200
     19 C11         -8.4670    -0.9300     2.4660 cc         1 UDN      -0.418200
     20 C12         -7.8740    -1.0250     1.2280 cd         1 UDN       0.037600
     21 O2          -4.9690     0.9510     1.8900 o          1 UDN      -0.532000
     22 O8          -8.3310    -0.0920     4.6740 o          1 UDN      -0.564000
     23 C1D         -5.9620    -0.6130    -0.3030 c5         1 UDN       0.343700
     24 C2D         -6.0760     0.7040    -1.1540 c5         1 UDN       0.067300
     25 O9          -7.2980     0.8270    -1.9180 oh         1 UDN      -0.724000
     26 C3D         -4.8430     0.5100    -2.0810 c5         1 UDN       0.107300
     27 C4D         -3.8020    -0.0120    -1.0300 c5         1 UDN       0.163300
     28 O4D         -4.5540    -0.9280    -0.1830 os         1 UDN      -0.387000
     29 O3D         -5.1470    -0.4260    -3.1250 oh         1 UDN      -0.689000
     30 C5D         -2.5500    -0.7220    -1.6390 c3         1 UDN       0.235600
     31 O5D         -1.4980    -0.8530    -0.6590 os         1 UDN      -0.575400
     32 PA          -0.6620     0.4240    -0.1370 p5         1 UDN       1.458800
     33 O1A         -0.7930     1.5580    -1.1000 o          1 UDN      -0.853500
     34 O2A         -1.1080     0.7800     1.2410 o          1 UDN      -0.853500
     35 O3A          0.7610    -0.2490    -0.2490 os         1 UDN      -0.715800
     36 PB           1.8030     0.4210     0.7290 p5         1 UDN       1.484400
     37 O1B          1.6570    -0.0470     2.1420 o          1 UDN      -0.837000
     38 O2B          1.9440     1.9000     0.5640 o          1 UDN      -0.837000
     39 H1           4.5390     1.3790    -0.1590 h1         1 UDN       0.106700
     40 H2           6.7350     0.3740    -0.3430 h1         1 UDN       0.098700
     41 H3           5.3710    -2.3450     0.0980 h1         1 UDN       0.045700
     42 H4           6.5910    -2.4380     2.2130 h1         1 UDN       0.007700
     43 H5           4.3660    -1.4240     2.3050 h1         1 UDN       0.095700
     44 H6           5.6460    -1.3740     4.4130 h1         1 UDN      -0.008800
     45 H7           6.3200     0.2090     4.0060 h1         1 UDN      -0.008800
     46 H8           6.1890    -0.7470    -4.5330 hc         1 UDN       0.049033
     47 H9           4.5180    -0.4460    -4.3620 hc         1 UDN       0.049033
     48 H10          5.5600     0.8820    -5.0230 hc         1 UDN       0.049033
     49 H11          5.4910    -1.4140    -2.2670 hn         1 UDN       0.314500
     50 H12          3.0880    -0.4390    -1.0480 hc         1 UDN       0.047700
     51 H13          3.3050    -1.4080     0.3930 hc         1 UDN       0.047700
     52 H14          8.1340    -1.8550     0.1380 ho         1 UDN       0.419000
     53 H15          7.9140    -0.6940     2.8760 ho         1 UDN       0.481000
     54 H16          4.5800     0.4440     5.4230 ho         1 UDN       0.470000
     55 H17         -6.2110     0.9040     3.9550 hn         1 UDN       0.334500
     56 H18         -9.4180    -1.4030     2.6910 ha         1 UDN       0.210000
     57 H19         -8.2860    -1.5680     0.3790 h4         1 UDN       0.205000
     58 H20         -6.4680    -1.4410    -0.8160 h2         1 UDN       0.073700
     59 H21         -5.9280     1.5920    -0.5220 h1         1 UDN       0.067700
     60 H22         -7.9990     1.1630    -1.3070 ho         1 UDN       0.503000
     61 H23         -4.5190     1.4680    -2.5130 h1         1 UDN       0.050700
     62 H24         -3.4740     0.8320    -0.4110 h1         1 UDN       0.080700
     63 H25         -6.1060    -0.2630    -3.3130 ho         1 UDN       0.494000
     64 H26         -2.8460    -1.7100    -2.0120 h1         1 UDN       0.033700
     65 H27         -2.1980    -0.1440    -2.5050 h1         1 UDN       0.033700
     66 C7           5.7140     0.5210    -2.8640 c          1 UDN       0.609100
@<TRIPOS>BOND
     1     1     2 1   
     2     1     9 1   
     3     1    12 1   
     4     1    39 1   
     5     2     3 1   
     6     2     8 1   
     7     2    40 1   
     8     3     4 1   
     9     3    10 1   
    10     3    41 1   
    11     4     5 1   
    12     4    11 1   
    13     4    42 1   
    14     5     6 1   
    15     5    12 1   
    16     5    43 1   
    17     6    13 1   
    18     6    44 1   
    19     6    45 1   
    20     7    46 1   
    21     7    47 1   
    22     7    48 1   
    23     7    66 1   
    24     8    49 1   
    25     8    66 1   
    26     9    36 1   
    27     9    50 1   
    28     9    51 1   
    29    10    52 1   
    30    11    53 1   
    31    13    54 1   
    32    14    66 2   
    33    15    16 1   
    34    15    20 1   
    35    15    23 1   
    36    16    17 1   
    37    16    21 2   
    38    17    18 1   
    39    17    55 1   
    40    18    19 1   
    41    18    22 2   
    42    19    20 2   
    43    19    56 1   
    44    20    57 1   
    45    23    24 1   
    46    23    28 1   
    47    23    58 1   
    48    24    25 1   
    49    24    26 1   
    50    24    59 1   
    51    25    60 1   
    52    26    27 1   
    53    26    29 1   
    54    26    61 1   
    55    27    28 1   
    56    27    30 1   
    57    27    62 1   
    58    29    63 1   
    59    30    31 1   
    60    30    64 1   
    61    30    65 1   
    62    31    32 1   
    63    32    33 1   
    64    32    34 1   
    65    32    35 1   
    66    35    36 1   
    67    36    37 1   
    68    36    38 1   
@<TRIPOS>SUBSTRUCTURE
     1 UDN         1 TEMP              0 ****  ****    0 ROOT
