@<TRIPOS>MOLECULE
UDO
   53    56     1     0     0
SMALL
bcc


@<TRIPOS>ATOM
      1 CAM         -4.3190    -0.6520    -0.5750 ca         1 UDO      -0.198500
      2 CAO         -5.6410    -0.3860    -0.8590 ca         1 UDO      -0.041000
      3 CBB         -6.2870     0.7110    -0.2920 ca         1 UDO      -0.242300
      4 CBF         -7.7310     0.9470    -0.5680 c3         1 UDO       0.726200
      5 FAC         -8.5250     0.1780     0.2000 f          1 UDO      -0.237967
      6 FAD         -8.0990     2.2150    -0.3400 f          1 UDO      -0.237967
      7 FAB         -8.0560     0.6650    -1.8380 f          1 UDO      -0.237967
      8 CAP         -5.5710     1.5310     0.5680 ca         1 UDO      -0.041000
      9 CAN         -4.2400     1.2730     0.8510 ca         1 UDO      -0.198500
     10 CBA         -3.5800     0.1680     0.2960 ca         1 UDO       0.199600
     11 NBE         -2.2650    -0.1380     0.6070 nh         1 UDO      -0.658000
     12 CAU         -1.5770     0.6680     1.5960 c6         1 UDO       0.182300
     13 CAS         -0.3590    -0.0630     2.1360 c6         1 UDO       0.089500
     14 CAT         -1.3870    -0.6020    -0.4560 c6         1 UDO       0.182300
     15 CAR         -0.1790    -1.3250     0.1110 c6         1 UDO       0.089500
     16 NBD          0.5160    -0.4740     1.0550 n          1 UDO      -0.479800
     17 CAW          1.7840    -0.0250     0.9760 c          1 UDO       0.680100
     18 OAA          2.2770     0.7070     1.8180 o          1 UDO      -0.583100
     19 CBC          2.6190    -0.4990    -0.2220 c3         1 UDO      -0.038100
     20 CAY          3.8250     0.3890    -0.4130 ca         1 UDO      -0.070300
     21 CAK          3.8290     1.3400    -1.4250 ca         1 UDO      -0.097500
     22 CAI          4.9180     2.1770    -1.6250 ca         1 UDO      -0.122000
     23 CAX          6.0190     2.0550    -0.7960 ca         1 UDO       0.034400
     24 CLA          7.3890     3.0850    -1.0350 cl         1 UDO      -0.109400
     25 CAJ          6.0420     1.1100     0.2200 ca         1 UDO      -0.122000
     26 CAL          4.9460     0.2850     0.4040 ca         1 UDO      -0.097500
     27 CAZ          3.0050    -1.9560    -0.0870 ca         1 UDO      -0.203600
     28 CAH          3.2140    -2.7350    -1.2190 ca         1 UDO      -0.087000
     29 CAF          3.6010    -4.0550    -1.0740 ca         1 UDO      -0.245300
     30 CAG          3.7690    -4.5560     0.2080 ca         1 UDO       0.406200
     31 NAV          3.5750    -3.8290     1.2990 nb         1 UDO      -0.661000
     32 CAQ          3.2020    -2.5640     1.1480 ca         1 UDO       0.410200
     33 HAM         -3.8690    -1.5280    -1.0210 ha         1 UDO       0.137500
     34 HAO         -6.1700    -1.0540    -1.5260 ha         1 UDO       0.145000
     35 HAP         -6.0300     2.3990     1.0220 ha         1 UDO       0.145000
     36 HAN         -3.7230     1.9640     1.4990 ha         1 UDO       0.137500
     37 HAU1        -1.2730     1.6430     1.1890 h1         1 UDO       0.050950
     38 HAU2        -2.2390     0.8560     2.4410 h1         1 UDO       0.050950
     39 HAT1        -1.9080    -1.2930    -1.1150 h1         1 UDO       0.050950
     40 HAT2        -1.0470     0.2430    -1.0720 h1         1 UDO       0.050950
     41 HAS1         0.1770     0.5810     2.8260 h1         1 UDO       0.067450
     42 HAS2        -0.6830    -0.9530     2.6840 h1         1 UDO       0.067450
     43 HAR1        -0.5010    -2.2340     0.6270 h1         1 UDO       0.067450
     44 HAR2         0.4590    -1.6410    -0.7090 h1         1 UDO       0.067450
     45 HBC          2.0110    -0.4040    -1.1270 hc         1 UDO       0.067700
     46 HAK          2.9710     1.4410    -2.0790 ha         1 UDO       0.135500
     47 HAL          4.9840    -0.4520     1.1950 ha         1 UDO       0.135500
     48 HAI          4.9040     2.9090    -2.4200 ha         1 UDO       0.148000
     49 HAJ          6.9070     1.0170     0.8620 ha         1 UDO       0.148000
     50 HAH          3.0710    -2.3170    -2.2080 ha         1 UDO       0.137000
     51 HAQ          3.0570    -2.0060     2.0680 h4         1 UDO       0.031100
     52 HAF          3.7680    -4.6860    -1.9360 ha         1 UDO       0.145000
     53 HAG          4.0710    -5.5860     0.3580 h4         1 UDO       0.022100
@<TRIPOS>BOND
     1     1     2 ar  
     2     1    10 ar  
     3     1    33 1   
     4     2     3 ar  
     5     2    34 1   
     6     3     4 1   
     7     3     8 ar  
     8     4     5 1   
     9     4     6 1   
    10     4     7 1   
    11     8     9 ar  
    12     8    35 1   
    13     9    10 ar  
    14     9    36 1   
    15    10    11 1   
    16    11    12 1   
    17    11    14 1   
    18    12    13 1   
    19    12    37 1   
    20    12    38 1   
    21    13    16 1   
    22    13    41 1   
    23    13    42 1   
    24    14    15 1   
    25    14    39 1   
    26    14    40 1   
    27    15    16 1   
    28    15    43 1   
    29    15    44 1   
    30    16    17 1   
    31    17    18 2   
    32    17    19 1   
    33    19    20 1   
    34    19    27 1   
    35    19    45 1   
    36    20    21 ar  
    37    20    26 ar  
    38    21    22 ar  
    39    21    46 1   
    40    22    23 ar  
    41    22    48 1   
    42    23    24 1   
    43    23    25 ar  
    44    25    26 ar  
    45    25    49 1   
    46    26    47 1   
    47    27    28 ar  
    48    27    32 ar  
    49    28    29 ar  
    50    28    50 1   
    51    29    30 ar  
    52    29    52 1   
    53    30    31 ar  
    54    30    53 1   
    55    31    32 ar  
    56    32    51 1   
@<TRIPOS>SUBSTRUCTURE
     1 UDO         1 TEMP              0 ****  ****    0 ROOT
