@<TRIPOS>MOLECULE
UDO
   53    56     1     0     0
SMALL
No Charge or Current Charge


@<TRIPOS>ATOM
      1 CAM         -4.5190    -0.8800     0.0100 ca         1 UDO      -0.180500
      2 CAO         -5.9190    -0.8960    -0.1010 ca         1 UDO      -0.023000
      3 CBB         -6.6570     0.2980     0.0340 ca         1 UDO      -0.242300
      4 CBF         -8.1860     0.2860    -0.0750 c3         1 UDO       0.362300
      5 FAC         -8.7620     0.0840     1.1300 f          1 UDO      -0.116667
      6 FAD         -8.6760     1.4510    -0.5570 f          1 UDO      -0.116667
      7 FAB         -8.6350    -0.6900    -0.8970 f          1 UDO      -0.116667
      8 CAP         -5.9670     1.5000     0.2960 ca         1 UDO      -0.023000
      9 CAN         -4.5670     1.5070     0.4060 ca         1 UDO      -0.180500
     10 CBA         -3.8300     0.3170     0.2610 ca         1 UDO       0.338000
     11 NBE         -2.4190     0.3020     0.3680 nh         1 UDO      -0.796400
     12 CAU         -1.6920     1.3200     1.1720 c6         1 UDO       0.182300
     13 CAS         -0.3210     0.7870     1.6710 c6         1 UDO       0.089500
     14 CAT         -1.6000    -0.1980    -0.7670 c6         1 UDO       0.182300
     15 CAR         -0.2290    -0.7520    -0.2920 c6         1 UDO       0.089500
     16 NBD          0.5380     0.1680     0.6130 n          1 UDO      -0.412800
     17 CAW          1.8950    -0.0930     0.9150 c          1 UDO       0.613100
     18 OAA          2.3140     0.0610     2.0570 o          1 UDO      -0.583100
     19 CBC          2.8450    -0.5580    -0.2260 c3         1 UDO      -0.038100
     20 CAY          4.1410     0.2580    -0.2290 ca         1 UDO      -0.070300
     21 CAK          4.2870     1.3490    -1.1110 ca         1 UDO      -0.079500
     22 CAI          5.4750     2.1010    -1.1210 ca         1 UDO      -0.104000
     23 CAX          6.5240     1.7690    -0.2490 ca         1 UDO       0.126000
     24 ClA          8.0090     2.7110    -0.2630 cl         1 UDO      -0.201000
     25 CAJ          6.3880     0.6870     0.6340 ca         1 UDO      -0.104000
     26 CAL          5.2010    -0.0670     0.6450 ca         1 UDO      -0.079500
     27 CAZ          3.1280    -2.0700    -0.2180 ca         1 UDO      -0.138300
     28 CAH          3.7550    -2.6530    -1.3360 ca         1 UDO      -0.069000
     29 CAF          4.0080    -4.0330    -1.3220 ca         1 UDO      -0.162000
     30 CAG          3.6310    -4.7890    -0.2000 ca         1 UDO       0.340900
     31 NAV          3.0280    -4.2450     0.8800 nb         1 UDO      -0.661000
     32 CAQ          2.7850    -2.9130     0.8670 ca         1 UDO       0.344900
     33 HAM         -3.9660    -1.8090    -0.0880 ha         1 UDO       0.119500
     34 HAO         -6.4260    -1.8420    -0.2870 ha         1 UDO       0.127000
     35 HAP         -6.5120     2.4350     0.4160 ha         1 UDO       0.127000
     36 HAN         -4.0590     2.4470     0.5950 ha         1 UDO       0.119500
     37 HAU1        -1.5220     2.2230     0.5660 h1         1 UDO       0.050950
     38 HAU2        -2.2870     1.6180     2.0480 h1         1 UDO       0.050950
     39 HAT1        -2.1270    -0.9930    -1.3140 h1         1 UDO       0.050950
     40 HAT2        -1.4220     0.6200    -1.4810 h1         1 UDO       0.050950
     41 HAS1         0.2210     1.6180     2.1450 h1         1 UDO       0.067450
     42 HAS2        -0.5050     0.0360     2.4530 h1         1 UDO       0.067450
     43 HAR1        -0.4080    -1.6920     0.2490 h1         1 UDO       0.067450
     44 HAR2         0.3510    -1.0110    -1.1860 h1         1 UDO       0.067450
     45 HBC          2.3280    -0.3610    -1.1700 hc         1 UDO       0.067700
     46 HAK          3.4810     1.6170    -1.7910 ha         1 UDO       0.117500
     47 HAL          5.1050    -0.9000     1.3380 ha         1 UDO       0.117500
     48 HAI          5.5820     2.9400    -1.8030 ha         1 UDO       0.130000
     49 HAJ          7.2010     0.4320     1.3100 ha         1 UDO       0.130000
     50 HAH          4.0410    -2.0490    -2.1950 ha         1 UDO       0.119000
     51 HAQ          2.2970    -2.5240     1.7590 h4         1 UDO       0.031100
     52 HAF          4.4910    -4.5180    -2.1650 ha         1 UDO       0.127000
     53 HAG          3.8170    -5.8620    -0.1650 h4         1 UDO       0.022100
@<TRIPOS>BOND
     1     1     2 ar  
     2     1    10 ar  
     3     1    33 1   
     4     2     3 ar  
     5     2    34 1   
     6     3     4 1   
     7     3     8 ar  
     8     4     5 1   
     9     4     6 1   
    10     4     7 1   
    11     8     9 ar  
    12     8    35 1   
    13     9    10 ar  
    14     9    36 1   
    15    10    11 1   
    16    11    12 1   
    17    11    14 1   
    18    12    13 1   
    19    12    37 1   
    20    12    38 1   
    21    13    16 1   
    22    13    41 1   
    23    13    42 1   
    24    14    15 1   
    25    14    39 1   
    26    14    40 1   
    27    15    16 1   
    28    15    43 1   
    29    15    44 1   
    30    16    17 1   
    31    17    18 2   
    32    17    19 1   
    33    19    20 1   
    34    19    27 1   
    35    19    45 1   
    36    20    21 ar  
    37    20    26 ar  
    38    21    22 ar  
    39    21    46 1   
    40    22    23 ar  
    41    22    48 1   
    42    23    24 1   
    43    23    25 ar  
    44    25    26 ar  
    45    25    49 1   
    46    26    47 1   
    47    27    28 ar  
    48    27    32 ar  
    49    28    29 ar  
    50    28    50 1   
    51    29    30 ar  
    52    29    52 1   
    53    30    31 ar  
    54    30    53 1   
    55    31    32 ar  
    56    32    51 1   
@<TRIPOS>SUBSTRUCTURE
     1 UDO         1 TEMP              0 ****  ****    0 ROOT
