@<TRIPOS>MOLECULE
UDQ
   66    69     1     0     0
SMALL
abcg2


@<TRIPOS>ATOM
      1 C10        -12.1600    18.6540   -11.8100 c6         1 UDQ       0.181800
      2 C15        -15.7370    22.0250   -11.6060 ca         1 UDQ      -0.155600
      3 C17        -17.6570    23.3840   -12.1380 ca         1 UDQ      -0.108000
      4 C21        -18.5360    24.1310   -15.5190 c6         1 UDQ       0.167300
      5 C22        -18.5350    25.5550   -16.0520 c6         1 UDQ      -0.075400
      6 C24        -20.9030    25.7550   -15.2940 c6         1 UDQ      -0.075400
      7 C26        -17.3280    21.3030   -13.2700 ca         1 UDQ      -0.108000
      8 C01         -6.7330    16.2340   -14.6950 c3         1 UDQ       0.222100
      9 C03         -8.3030    15.9370   -12.8230 ca         1 UDQ       0.404900
     10 C04         -9.1080    17.0070   -13.2160 ca         1 UDQ      -0.362000
     11 C05        -10.2340    17.2860   -12.4340 ca         1 UDQ       0.414900
     12 C07        -10.7970    19.3480   -13.6590 c6         1 UDQ       0.210800
     13 C08        -10.2690    20.5550   -12.8900 c6         1 UDQ      -0.103400
     14 C09        -11.2810    20.9890   -11.8330 c6         1 UDQ      -0.063400
     15 C11        -11.7080    19.8300   -10.9330 c6         1 UDQ       0.140000
     16 C12        -12.8320    20.2410    -9.9630 c3         1 UDQ       0.078000
     17 C14        -14.4710    21.8710   -10.8260 c          1 UDQ       0.614700
     18 C16        -16.4920    23.1830   -11.4220 ca         1 UDQ      -0.076500
     19 C18        -18.0950    22.4440   -13.0700 ca         1 UDQ      -0.062300
     20 C19        -19.3810    22.6610   -13.8230 c3         1 UDQ       0.211100
     21 C23        -19.9410    25.9830   -16.4530 c6         1 UDQ      -0.075400
     22 C25        -20.8180    24.3200   -14.7960 c6         1 UDQ       0.167300
     23 C27        -16.1630    21.0900   -12.5460 ca         1 UDQ      -0.076500
     24 C31         -9.6740    15.5520   -11.0780 ca         1 UDQ       0.195900
     25 N06        -11.1210    18.2690   -12.7430 nh         1 UDQ      -0.757300
     26 N13        -14.0720    20.6030   -10.6050 ns         1 UDQ      -0.508900
     27 N20        -19.4600    23.9830   -14.4050 n3         1 UDQ      -0.720600
     28 N30        -10.5070    16.5400   -11.3460 nb         1 UDQ      -0.317000
     29 N32         -8.5910    15.1950   -11.7330 nb         1 UDQ      -0.291000
     30 O28        -13.8570    22.8480   -10.4230 o          1 UDQ      -0.595100
     31 O29        -10.5790    19.4680   -10.1640 oh         1 UDQ      -0.654000
     32 H1         -13.0380    18.9480   -12.3920 h1         1 UDQ       0.066200
     33 H2         -12.4480    17.8000   -11.1990 h1         1 UDQ       0.066200
     34 H3         -18.2340    24.2870   -11.9830 ha         1 UDQ       0.123000
     35 H5         -18.7910    23.4320   -16.3360 h1         1 UDQ       0.030700
     36 H6         -18.1510    26.2250   -15.2770 hc         1 UDQ       0.047200
     37 H7         -17.8520    25.6210   -16.9010 hc         1 UDQ       0.047200
     38 H8         -21.9310    25.9720   -15.5930 hc         1 UDQ       0.047200
     39 H9         -20.6590    26.4350   -14.4720 hc         1 UDQ       0.047200
     40 H10        -17.6350    20.5730   -14.0090 ha         1 UDQ       0.123000
     41 H11         -5.8160    15.7490   -15.0190 h1         1 UDQ       0.037700
     42 H12         -7.4570    16.1650   -15.5110 h1         1 UDQ       0.037700
     43 H13         -6.5140    17.2910   -14.5260 h1         1 UDQ       0.037700
     44 H14         -8.8550    17.5780   -14.0950 ha         1 UDQ       0.127000
     45 H15        -11.7170    19.6220   -14.1850 h1         1 UDQ       0.052700
     46 H16        -10.0970    19.0230   -14.4240 h1         1 UDQ       0.052700
     47 H17         -9.3100    20.3030   -12.4320 hc         1 UDQ       0.056200
     48 H18        -10.0840    21.3750   -13.5860 hc         1 UDQ       0.056200
     49 H19        -10.8790    21.8030   -11.2230 hc         1 UDQ       0.059200
     50 H20        -12.1650    21.3820   -12.3410 hc         1 UDQ       0.059200
     51 H21        -12.4860    21.0780    -9.3580 h1         1 UDQ       0.065700
     52 H22        -13.0310    19.4080    -9.2840 h1         1 UDQ       0.065700
     53 H23        -16.1670    23.9270   -10.7070 ha         1 UDQ       0.122000
     54 H24        -20.2120    22.5500   -13.1190 h1         1 UDQ       0.039200
     55 H25        -19.5080    21.8630   -14.5740 h1         1 UDQ       0.039200
     56 H26        -20.2670    25.3940   -17.3160 hc         1 UDQ       0.039200
     57 H27        -19.9520    27.0300   -16.7640 hc         1 UDQ       0.039200
     58 H28        -21.1910    23.6430   -15.5850 h1         1 UDQ       0.030700
     59 H29        -21.4720    24.1860   -13.9310 h1         1 UDQ       0.030700
     60 H30        -15.5790    20.2020   -12.7550 ha         1 UDQ       0.122000
     61 H31         -9.9140    14.9610   -10.1980 h5         1 UDQ       0.038100
     62 H33        -14.6970    19.8550   -10.8540 hn         1 UDQ       0.313500
     63 H35        -10.7080    18.5760    -9.8210 ho         1 UDQ       0.458000
     64 N02         -7.1980    15.5830   -13.5000 nu         1 UDQ      -0.937100
     65 H4         -17.5310    23.8630   -15.1820 h1         1 UDQ       0.030700
     66 H32         -6.6910    14.7880   -13.1500 hn         1 UDQ       0.508000
@<TRIPOS>BOND
     1     1    15 1   
     2     1    25 1   
     3     1    32 1   
     4     1    33 1   
     5     2    17 1   
     6     2    18 ar  
     7     2    23 ar  
     8     3    18 ar  
     9     3    19 ar  
    10     3    34 1   
    11     4     5 1   
    12     4    27 1   
    13     4    35 1   
    14     4    65 1   
    15     5    21 1   
    16     5    36 1   
    17     5    37 1   
    18     6    21 1   
    19     6    22 1   
    20     6    38 1   
    21     6    39 1   
    22     7    19 ar  
    23     7    23 ar  
    24     7    40 1   
    25     8    41 1   
    26     8    42 1   
    27     8    43 1   
    28     8    64 1   
    29     9    10 ar  
    30     9    29 ar  
    31     9    64 1   
    32    10    11 ar  
    33    10    44 1   
    34    11    25 1   
    35    11    28 ar  
    36    12    13 1   
    37    12    25 1   
    38    12    45 1   
    39    12    46 1   
    40    13    14 1   
    41    13    47 1   
    42    13    48 1   
    43    14    15 1   
    44    14    49 1   
    45    14    50 1   
    46    15    16 1   
    47    15    31 1   
    48    16    26 1   
    49    16    51 1   
    50    16    52 1   
    51    17    26 1   
    52    17    30 2   
    53    18    53 1   
    54    19    20 1   
    55    20    27 1   
    56    20    54 1   
    57    20    55 1   
    58    21    56 1   
    59    21    57 1   
    60    22    27 1   
    61    22    58 1   
    62    22    59 1   
    63    23    60 1   
    64    24    28 ar  
    65    24    29 ar  
    66    24    61 1   
    67    26    62 1   
    68    31    63 1   
    69    64    66 1   
@<TRIPOS>SUBSTRUCTURE
     1 UDQ         1 TEMP              0 ****  ****    0 ROOT
