@<TRIPOS>MOLECULE
UDQ
   66    69     1     0     0
SMALL
No Charge or Current Charge


@<TRIPOS>ATOM
      1 C10        -11.8740    19.0440   -11.1900 c6         1 UDQ       0.181800
      2 C15        -15.8970    22.1060   -10.9340 ca         1 UDQ      -0.155600
      3 C17        -17.5290    23.6710   -11.8810 ca         1 UDQ      -0.108000
      4 C21        -18.0870    23.0520   -15.5690 c6         1 UDQ       0.167300
      5 C22        -17.6990    23.9660   -16.7580 c6         1 UDQ      -0.075400
      6 C24        -19.9670    25.0790   -16.5700 c6         1 UDQ      -0.075400
      7 C26        -17.6580    21.3170   -12.4470 ca         1 UDQ      -0.108000
      8 C01         -8.5040    17.0020   -16.4890 c3         1 UDQ       0.222100
      9 C03         -9.3000    16.2560   -14.1710 ca         1 UDQ       0.404900
     10 C04         -9.6510    17.5360   -13.7380 ca         1 UDQ      -0.362000
     11 C05        -10.1720    17.6580   -12.4430 ca         1 UDQ       0.414900
     12 C07        -10.0580    20.1850   -12.4610 c6         1 UDQ       0.210800
     13 C08         -9.9550    21.2760   -11.3640 c6         1 UDQ      -0.103400
     14 C09        -11.2680    21.4090   -10.5430 c6         1 UDQ      -0.063400
     15 C11        -11.7370    20.0300    -9.9890 c6         1 UDQ       0.140000
     16 C12        -13.0680    20.1320    -9.1710 c3         1 UDQ       0.078000
     17 C14        -14.6850    21.8700   -10.0540 c          1 UDQ       0.614700
     18 C16        -16.4100    23.4160   -11.0710 ca         1 UDQ      -0.076500
     19 C18        -18.1610    22.6240   -12.5750 ca         1 UDQ      -0.062300
     20 C19        -19.3760    22.9080   -13.4560 c3         1 UDQ       0.211100
     21 C23        -18.9510    24.4290   -17.5370 c6         1 UDQ      -0.075400
     22 C25        -20.2930    24.1330   -15.3880 c6         1 UDQ       0.167300
     23 C27        -16.5390    21.0560   -11.6370 ca         1 UDQ      -0.076500
     24 C31         -9.9590    15.3920   -12.1680 ca         1 UDQ       0.195900
     25 N06        -10.5570    18.9000   -11.8930 nh         1 UDQ      -0.757300
     26 N13        -14.2430    20.5670    -9.9480 ns         1 UDQ      -0.508900
     27 N20        -19.0630    23.7190   -14.6580 n3         1 UDQ      -0.720600
     28 N30        -10.3290    16.5800   -11.6530 nb         1 UDQ      -0.317000
     29 N32         -9.4480    15.1760   -13.3950 nb         1 UDQ      -0.291000
     30 O28        -14.1200    22.7820    -9.4660 o          1 UDQ      -0.595100
     31 O29        -10.7190    19.5150    -9.1220 oh         1 UDQ      -0.654000
     32 H1         -12.6350    19.4180   -11.8910 h1         1 UDQ       0.066200
     33 H2         -12.2390    18.0770   -10.8130 h1         1 UDQ       0.066200
     34 H3         -17.9060    24.6870   -11.9770 ha         1 UDQ       0.123000
     35 H5         -18.5130    22.1160   -15.9600 h1         1 UDQ       0.030700
     36 H6         -17.1500    24.8400   -16.3820 hc         1 UDQ       0.047200
     37 H7         -17.0140    23.4310   -17.4300 hc         1 UDQ       0.047200
     38 H8         -20.8890    25.3330   -17.1090 hc         1 UDQ       0.047200
     39 H9         -19.5590    26.0220   -16.1820 hc         1 UDQ       0.047200
     40 H10        -18.1350    20.4960   -12.9790 ha         1 UDQ       0.123000
     41 H11         -8.0910    16.5050   -17.3780 h1         1 UDQ       0.037700
     42 H12         -9.4260    17.5220   -16.7810 h1         1 UDQ       0.037700
     43 H13         -7.7770    17.7480   -16.1400 h1         1 UDQ       0.037700
     44 H14         -9.5360    18.3960   -14.3860 ha         1 UDQ       0.127000
     45 H15        -10.7340    20.5300   -13.2580 h1         1 UDQ       0.052700
     46 H16         -9.0600    20.0550   -12.9060 h1         1 UDQ       0.052700
     47 H17         -9.1180    21.0360   -10.6930 hc         1 UDQ       0.056200
     48 H18         -9.7040    22.2390   -11.8270 hc         1 UDQ       0.056200
     49 H19        -11.1240    22.1210    -9.7200 hc         1 UDQ       0.059200
     50 H20        -12.0460    21.8360   -11.1900 hc         1 UDQ       0.059200
     51 H21        -12.9140    20.8220    -8.3300 h1         1 UDQ       0.065700
     52 H22        -13.2910    19.1450    -8.7450 h1         1 UDQ       0.065700
     53 H23        -15.9400    24.2470   -10.5490 ha         1 UDQ       0.122000
     54 H24        -20.1180    23.4340   -12.8390 h1         1 UDQ       0.039200
     55 H25        -19.8350    21.9560   -13.7560 h1         1 UDQ       0.039200
     56 H26        -19.4150    23.5690   -18.0400 hc         1 UDQ       0.039200
     57 H27        -18.6670    25.1410   -18.3240 hc         1 UDQ       0.039200
     58 H28        -20.8210    23.2480   -15.7730 h1         1 UDQ       0.030700
     59 H29        -20.9840    24.6500   -14.7060 h1         1 UDQ       0.030700
     60 H30        -16.1840    20.0310   -11.5710 ha         1 UDQ       0.122000
     61 H31        -10.0850    14.5200   -11.5290 h5         1 UDQ       0.038100
     62 H33        -14.7820    19.8650   -10.4370 hn         1 UDQ       0.313500
     63 H35        -10.0980    19.0750    -9.7490 ho         1 UDQ       0.458000
     64 N02         -8.7800    16.0160   -15.4300 nu         1 UDQ      -0.937100
     65 H4         -17.1690    22.7860   -15.0260 h1         1 UDQ       0.030700
     66 H32         -8.5640    15.0370   -15.6280 hn         1 UDQ       0.508000
@<TRIPOS>BOND
     1     1    15 1   
     2     1    25 1   
     3     1    32 1   
     4     1    33 1   
     5     2    17 1   
     6     2    18 ar  
     7     2    23 ar  
     8     3    18 ar  
     9     3    19 ar  
    10     3    34 1   
    11     4     5 1   
    12     4    27 1   
    13     4    35 1   
    14     4    65 1   
    15     5    21 1   
    16     5    36 1   
    17     5    37 1   
    18     6    21 1   
    19     6    22 1   
    20     6    38 1   
    21     6    39 1   
    22     7    19 ar  
    23     7    23 ar  
    24     7    40 1   
    25     8    41 1   
    26     8    42 1   
    27     8    43 1   
    28     8    64 1   
    29     9    10 ar  
    30     9    29 ar  
    31     9    64 1   
    32    10    11 ar  
    33    10    44 1   
    34    11    25 1   
    35    11    28 ar  
    36    12    13 1   
    37    12    25 1   
    38    12    45 1   
    39    12    46 1   
    40    13    14 1   
    41    13    47 1   
    42    13    48 1   
    43    14    15 1   
    44    14    49 1   
    45    14    50 1   
    46    15    16 1   
    47    15    31 1   
    48    16    26 1   
    49    16    51 1   
    50    16    52 1   
    51    17    26 1   
    52    17    30 2   
    53    18    53 1   
    54    19    20 1   
    55    20    27 1   
    56    20    54 1   
    57    20    55 1   
    58    21    56 1   
    59    21    57 1   
    60    22    27 1   
    61    22    58 1   
    62    22    59 1   
    63    23    60 1   
    64    24    28 ar  
    65    24    29 ar  
    66    24    61 1   
    67    26    62 1   
    68    31    63 1   
    69    64    66 1   
@<TRIPOS>SUBSTRUCTURE
     1 UDQ         1 TEMP              0 ****  ****    0 ROOT
