@<TRIPOS>MOLECULE
UDR
   65    68     1     0     0
SMALL
abcg2


@<TRIPOS>ATOM
      1 CAA          0.4080     5.5620    -0.8270 c3         1 UDR       0.153900
      2 CAB          4.9890     2.3970     1.3300 c3         1 UDR       0.044900
      3 CAE         -4.8630     0.8460     1.6570 c3         1 UDR      -0.042800
      4 CAF         -5.0710    -4.1770    -1.8450 c3         1 UDR       0.107300
      5 OAG          2.6100     3.9280     0.8220 o          1 UDR      -0.500100
      6 OAH         -7.4710    -3.2320    -0.3850 o          1 UDR      -0.510000
      7 CAI          0.0370    -1.8060    -0.9310 c2         1 UDR      -0.184200
      8 CAJ         -0.9470     1.5160    -1.8520 ca         1 UDR      -0.064000
      9 CAK         -2.8510    -0.0220     0.3710 ca         1 UDR      -0.105000
     10 CAL          0.8010     1.1110    -0.2830 ca         1 UDR      -0.059000
     11 CAM         -2.9300    -2.0070    -1.0190 ca         1 UDR      -0.104000
     12 CAN          1.4780    -1.7980    -1.3280 c3         1 UDR      -0.049200
     13 CAO          2.4150    -2.1270    -0.1640 c3         1 UDR      -0.070400
     14 CAP          3.8730    -2.1610    -0.6260 c3         1 UDR      -0.104700
     15 NAQ          6.2640    -3.0890     1.8920 nc         1 UDR      -0.361000
     16 NAR          5.5830    -3.3770     0.7330 nc         1 UDR      -0.361000
     17 OAS          1.0730     4.5260    -1.5420 os         1 UDR      -0.361100
     18 OAT          4.9630    -1.4160     1.4260 os         1 UDR      -0.286000
     19 OAU         -6.1590    -1.5670     0.3770 os         1 UDR      -0.282200
     20 SAV          3.7450     1.6260     0.2780 ss         1 UDR      -0.366600
     21 CAY         -0.5150     2.8210    -2.0510 ca         1 UDR      -0.106300
     22 CAZ          5.8730    -1.9260     2.2730 cd         1 UDR       0.417300
     23 CBA         -4.1920    -0.1340     0.7460 ca         1 UDR      -0.036300
     24 CBB         -0.3040     0.6430    -0.9770 ca         1 UDR      -0.066800
     25 CBC         -2.2150    -0.9290    -0.4830 ca         1 UDR      -0.035800
     26 CBD          4.8250    -2.3690     0.4860 cd         1 UDR       0.423300
     27 CBE          1.2620     2.4140    -0.4540 ca         1 UDR      -0.180600
     28 CBF          0.5960     3.2750    -1.3300 ca         1 UDR       0.159100
     29 CBG         -6.3960    -2.6920    -0.3530 c          1 UDR       0.685100
     30 CBH         -4.2530    -2.1250    -0.6480 ca         1 UDR      -0.004400
     31 CBI         -4.8520    -1.2130     0.2030 ca         1 UDR       0.047100
     32 NBJ         -5.2390    -3.0340    -0.9800 n          1 UDR      -0.314000
     33 HAA          0.8530     6.5020    -1.1460 h1         1 UDR       0.041700
     34 HAAA        -0.6610     5.5900    -1.0480 h1         1 UDR       0.041700
     35 HAAB         0.5440     5.4500     0.2490 h1         1 UDR       0.041700
     36 HAB          4.6010     2.5710     2.3310 h1         1 UDR       0.069700
     37 HABA         5.8190     1.6960     1.3860 h1         1 UDR       0.069700
     38 HABB         5.3410     3.3300     0.8980 h1         1 UDR       0.069700
     39 HAC         -1.8780     4.4180    -2.5510 hc         1 UDR       0.048367
     40 HACA        -0.5030     4.2870    -3.6340 hc         1 UDR       0.048367
     41 HACB        -1.8150     3.1160    -3.7270 hc         1 UDR       0.048367
     42 HAD          6.7890    -0.2190     3.1490 hc         1 UDR       0.068033
     43 HADA         5.4300    -0.8710     4.0640 hc         1 UDR       0.068033
     44 HADB         6.9800    -1.7250     4.0520 hc         1 UDR       0.068033
     45 HAE         -5.5480     1.4910     1.1040 hc         1 UDR       0.052033
     46 HAEA        -5.4440     0.3440     2.4310 hc         1 UDR       0.052033
     47 HAEB        -4.1300     1.4830     2.1480 hc         1 UDR       0.052033
     48 HAF         -6.0150    -4.7080    -1.9190 h1         1 UDR       0.054033
     49 HAFA        -4.7670    -3.8580    -2.8400 h1         1 UDR       0.054033
     50 HAFB        -4.3190    -4.8520    -1.4390 h1         1 UDR       0.054033
     51 HAI         -0.3780    -2.7900    -0.7330 ha         1 UDR       0.175000
     52 HAJ         -1.8070     1.1650    -2.4110 ha         1 UDR       0.123000
     53 HAK         -2.2800     0.8040     0.7770 ha         1 UDR       0.126000
     54 HAL          1.2890     0.4630     0.4320 ha         1 UDR       0.133000
     55 HAM         -2.4680    -2.7000    -1.7090 ha         1 UDR       0.129000
     56 HAN          1.6200    -2.5490    -2.1110 hc         1 UDR       0.055200
     57 HANA         1.7620    -0.8360    -1.7600 hc         1 UDR       0.055200
     58 HAO          2.2950    -1.3810     0.6250 hc         1 UDR       0.054200
     59 HAOA         2.1450    -3.0920     0.2740 hc         1 UDR       0.054200
     60 HAP          4.0240    -2.9640    -1.3480 hc         1 UDR       0.077200
     61 HAPA         4.1200    -1.2220    -1.1310 hc         1 UDR       0.077200
     62 CAC         -1.2100     3.7080    -3.0430 c3         1 UDR      -0.044800
     63 CAW          2.4740     2.8580     0.2860 c          1 UDR       0.633300
     64 CAX         -0.7800    -0.7490    -0.8050 ce         1 UDR      -0.013400
     65 CAD          6.2900    -1.1400     3.4500 c3         1 UDR      -0.120400
@<TRIPOS>BOND
     1     1    17 1   
     2     1    33 1   
     3     1    34 1   
     4     1    35 1   
     5     2    20 1   
     6     2    36 1   
     7     2    37 1   
     8     2    38 1   
     9     3    23 1   
    10     3    45 1   
    11     3    46 1   
    12     3    47 1   
    13     4    32 1   
    14     4    48 1   
    15     4    49 1   
    16     4    50 1   
    17     5    63 2   
    18     6    29 2   
    19     7    12 1   
    20     7    51 1   
    21     7    64 2   
    22     8    21 ar  
    23     8    24 ar  
    24     8    52 1   
    25     9    23 ar  
    26     9    25 ar  
    27     9    53 1   
    28    10    24 ar  
    29    10    27 ar  
    30    10    54 1   
    31    11    25 ar  
    32    11    30 ar  
    33    11    55 1   
    34    12    13 1   
    35    12    56 1   
    36    12    57 1   
    37    13    14 1   
    38    13    58 1   
    39    13    59 1   
    40    14    26 1   
    41    14    60 1   
    42    14    61 1   
    43    15    16 1   
    44    15    22 2   
    45    16    26 2   
    46    17    28 1   
    47    18    22 1   
    48    18    26 1   
    49    19    29 1   
    50    19    31 1   
    51    20    63 1   
    52    21    28 ar  
    53    21    62 1   
    54    22    65 1   
    55    23    31 ar  
    56    24    64 1   
    57    25    64 1   
    58    27    28 ar  
    59    27    63 1   
    60    29    32 1   
    61    30    31 ar  
    62    30    32 1   
    63    39    62 1   
    64    40    62 1   
    65    41    62 1   
    66    42    65 1   
    67    43    65 1   
    68    44    65 1   
@<TRIPOS>SUBSTRUCTURE
     1 UDR         1 TEMP              0 ****  ****    0 ROOT
