@<TRIPOS>MOLECULE
UDR
   65    68     1     0     0
SMALL
No Charge or Current Charge


@<TRIPOS>ATOM
      1 CAA          0.3130     5.6660    -0.9930 c3         1 UDR       0.153900
      2 CAB          4.9010     2.6720     1.6930 c3         1 UDR       0.044900
      3 CAE         -4.8770     0.9700     1.6100 c3         1 UDR      -0.042800
      4 CAF         -5.1580    -4.2690    -1.6490 c3         1 UDR       0.107300
      5 OAG          2.4260     4.0180     0.9440 o          1 UDR      -0.500100
      6 OAH         -7.6580    -3.0720    -0.5340 o          1 UDR      -0.510000
      7 CAI          0.0500    -1.8540    -0.9950 c2         1 UDR      -0.184200
      8 CAJ         -0.9300     1.4580    -1.9320 ca         1 UDR      -0.064000
      9 CAK         -2.8180     0.0070     0.4290 ca         1 UDR      -0.105000
     10 CAL          0.7830     1.1190    -0.2490 ca         1 UDR      -0.059000
     11 CAM         -2.9620    -2.0230    -0.9450 ca         1 UDR      -0.104000
     12 CAN          1.5060    -1.8530    -1.4320 c3         1 UDR      -0.049200
     13 CAO          2.4670    -2.2180    -0.2800 c3         1 UDR      -0.070400
     14 CAP          3.9580    -2.0980    -0.6720 c3         1 UDR      -0.104700
     15 NAQ          6.2240    -3.3550     1.8450 nc         1 UDR      -0.361000
     16 NAR          5.4860    -3.5440     0.6960 nc         1 UDR      -0.361000
     17 OAS          1.0440     4.5600    -1.5500 os         1 UDR      -0.361100
     18 OAT          5.1570    -1.4200     1.3860 os         1 UDR      -0.286000
     19 OAU         -6.2400    -1.4310     0.3180 os         1 UDR      -0.282200
     20 SAV          3.7580     1.7190     0.5930 ss         1 UDR      -0.366600
     21 CAY         -0.4970     2.7840    -2.1220 ca         1 UDR      -0.106300
     22 CAZ          5.9920    -2.1010     2.2020 cd         1 UDR       0.417300
     23 CBA         -4.1890    -0.0870     0.7610 ca         1 UDR      -0.036300
     24 CBB         -0.2900     0.6200    -1.0040 ca         1 UDR      -0.066800
     25 CBC         -2.1990    -0.9460    -0.4290 ca         1 UDR      -0.035800
     26 CBD          4.8880    -2.3820     0.4760 cd         1 UDR       0.423300
     27 CBE          1.2400     2.4420    -0.4240 ca         1 UDR      -0.180600
     28 CBF          0.5860     3.2780    -1.3540 ca         1 UDR       0.159100
     29 CBG         -6.5640    -2.5320    -0.4440 c          1 UDR       0.685100
     30 CBH         -4.2890    -2.1510    -0.5200 ca         1 UDR      -0.004400
     31 CBI         -4.8940    -1.1800     0.2450 ca         1 UDR       0.047100
     32 NBJ         -5.3410    -2.9640    -0.9910 n          1 UDR      -0.314000
     33 HAA          0.8220     6.6120    -1.2170 h1         1 UDR       0.041700
     34 HAAA        -0.7020     5.7200    -1.4040 h1         1 UDR       0.041700
     35 HAAB         0.2360     5.5690     0.0970 h1         1 UDR       0.041700
     36 HAB          4.3900     2.9270     2.6300 h1         1 UDR       0.069700
     37 HABA         5.7860     2.0650     1.9200 h1         1 UDR       0.069700
     38 HABB         5.2180     3.5950     1.1910 h1         1 UDR       0.069700
     39 HAC         -1.9990     4.2360    -2.7280 hc         1 UDR       0.048367
     40 HACA        -0.4980     4.3250    -3.6720 hc         1 UDR       0.048367
     41 HACB        -1.6450     3.0190    -3.9610 hc         1 UDR       0.048367
     42 HAD          6.1670    -0.4300     3.5470 hc         1 UDR       0.068033
     43 HADA         6.3890    -2.0130     4.3130 hc         1 UDR       0.068033
     44 HADB         7.6730    -1.3320     3.2960 hc         1 UDR       0.068033
     45 HAE         -5.4850     1.6360     0.9860 hc         1 UDR       0.052033
     46 HAEA        -5.5390     0.5100     2.3530 hc         1 UDR       0.052033
     47 HAEB        -4.1520     1.5880     2.1520 hc         1 UDR       0.052033
     48 HAF         -6.0920    -4.5840    -2.1300 h1         1 UDR       0.054033
     49 HAFA        -4.3740    -4.1940    -2.4120 h1         1 UDR       0.054033
     50 HAFB        -4.8660    -5.0180    -0.9030 h1         1 UDR       0.054033
     51 HAI         -0.3400    -2.8590    -0.8320 ha         1 UDR       0.175000
     52 HAJ         -1.7610     1.0690    -2.5170 ha         1 UDR       0.123000
     53 HAK         -2.2360     0.8400     0.8150 ha         1 UDR       0.126000
     54 HAL          1.2520     0.4740     0.4890 ha         1 UDR       0.133000
     55 HAM         -2.5370    -2.7300    -1.6520 ha         1 UDR       0.129000
     56 HAN          1.6420    -2.5760    -2.2460 hc         1 UDR       0.055200
     57 HANA         1.7890    -0.8800    -1.8500 hc         1 UDR       0.055200
     58 HAO          2.2720    -1.5660     0.5800 hc         1 UDR       0.054200
     59 HAOA         2.2600    -3.2430     0.0520 hc         1 UDR       0.054200
     60 HAP          4.1720    -2.7830    -1.5010 hc         1 UDR       0.077200
     61 HAPA         4.1530    -1.0860    -1.0460 hc         1 UDR       0.077200
     62 CAC         -1.1960     3.6400    -3.1760 c3         1 UDR      -0.044800
     63 CAW          2.4140     2.9330     0.3780 c          1 UDR       0.633300
     64 CAX         -0.7630    -0.7830    -0.8160 ce         1 UDR      -0.013400
     65 CAD          6.5880    -1.4320     3.4050 c3         1 UDR      -0.120400
@<TRIPOS>BOND
     1     1    17 1   
     2     1    33 1   
     3     1    34 1   
     4     1    35 1   
     5     2    20 1   
     6     2    36 1   
     7     2    37 1   
     8     2    38 1   
     9     3    23 1   
    10     3    45 1   
    11     3    46 1   
    12     3    47 1   
    13     4    32 1   
    14     4    48 1   
    15     4    49 1   
    16     4    50 1   
    17     5    63 2   
    18     6    29 2   
    19     7    12 1   
    20     7    51 1   
    21     7    64 2   
    22     8    21 ar  
    23     8    24 ar  
    24     8    52 1   
    25     9    23 ar  
    26     9    25 ar  
    27     9    53 1   
    28    10    24 ar  
    29    10    27 ar  
    30    10    54 1   
    31    11    25 ar  
    32    11    30 ar  
    33    11    55 1   
    34    12    13 1   
    35    12    56 1   
    36    12    57 1   
    37    13    14 1   
    38    13    58 1   
    39    13    59 1   
    40    14    26 1   
    41    14    60 1   
    42    14    61 1   
    43    15    16 1   
    44    15    22 2   
    45    16    26 2   
    46    17    28 1   
    47    18    22 1   
    48    18    26 1   
    49    19    29 1   
    50    19    31 1   
    51    20    63 1   
    52    21    28 ar  
    53    21    62 1   
    54    22    65 1   
    55    23    31 ar  
    56    24    64 1   
    57    25    64 1   
    58    27    28 ar  
    59    27    63 1   
    60    29    32 1   
    61    30    31 ar  
    62    30    32 1   
    63    39    62 1   
    64    40    62 1   
    65    41    62 1   
    66    42    65 1   
    67    43    65 1   
    68    44    65 1   
@<TRIPOS>SUBSTRUCTURE
     1 UDR         1 TEMP              0 ****  ****    0 ROOT
