@<TRIPOS>MOLECULE
UDS
   31    32     1     0     0
SMALL
No Charge or Current Charge


@<TRIPOS>ATOM
      1 N1          -0.6060     5.0690    11.5970 nb         1 UDS      -0.611000
      2 C2          -1.7960     5.7340    11.4740 ca         1 UDS       0.235500
      3 C3          -2.2180     6.3040    10.2410 ca         1 UDS       0.158100
      4 C4          -1.3910     6.1810     9.1170 ca         1 UDS      -0.172000
      5 C5           0.6820     5.3550     8.1360 ca         1 UDS      -0.117000
      6 C6           1.9020     4.6720     8.2640 ca         1 UDS      -0.098000
      7 C7           2.2720     4.1290     9.5040 ca         1 UDS      -0.140000
      8 C8           1.4210     4.2680    10.6160 ca         1 UDS      -0.049000
      9 C9           0.1940     4.9490    10.5100 ca         1 UDS       0.225000
     10 C10         -0.1690     5.4950     9.2490 ca         1 UDS      -0.026000
     11 C11         -2.6960     5.8690    12.7030 c          1 UDS       0.482600
     12 O1          -3.7770     6.4570    12.6730 o          1 UDS      -0.692100
     13 O3          -3.4110     6.9700    10.1260 oh         1 UDS      -0.563100
     14 N           -2.2200     5.2810    13.8590 ns         1 UDS      -0.405900
     15 CA          -2.9110     5.2570    15.1780 c3         1 UDS      -0.099300
     16 C           -2.2620     4.2190    16.1340 c          1 UDS       0.730000
     17 O           -2.9620     3.7430    17.0170 o          1 UDS      -0.711500
     18 CB          -3.0050     6.6480    15.8470 c3         1 UDS       0.165600
     19 OG          -1.7060     7.2430    15.9600 oh         1 UDS      -0.658000
     20 OXT         -1.1300     3.8220    15.8900 o          1 UDS      -0.711500
     21 H4          -1.6930     6.6080     8.1640 ha         1 UDS       0.124000
     22 H3          -3.8310     6.9400    11.0320 ho         1 UDS       0.532000
     23 H5           0.4000     5.7750     7.1730 ha         1 UDS       0.108000
     24 H6           2.5590     4.5650     7.4030 ha         1 UDS       0.102000
     25 H7           3.2160     3.5990     9.6060 ha         1 UDS       0.109000
     26 H8           1.7150     3.8440    11.5730 ha         1 UDS       0.139000
     27 H           -1.3290     4.7960    13.7720 hn         1 UDS       0.372500
     28 HA          -3.9360     4.9070    15.0020 h1         1 UDS       0.062700
     29 HB1C        -3.6610     7.2910    15.2450 h1         1 UDS       0.039700
     30 HB2C        -3.4690     6.5460    16.8370 h1         1 UDS       0.039700
     31 HG          -1.3100     7.2110    15.0620 ho         1 UDS       0.428000
@<TRIPOS>BOND
     1     1     2 ar  
     2     1     9 ar  
     3     2     3 ar  
     4     2    11 1   
     5     3     4 ar  
     6     3    13 1   
     7     4    10 ar  
     8     4    21 1   
     9     5     6 ar  
    10     5    10 ar  
    11     5    23 1   
    12     6     7 ar  
    13     6    24 1   
    14     7     8 ar  
    15     7    25 1   
    16     8     9 ar  
    17     8    26 1   
    18     9    10 ar  
    19    11    12 2   
    20    11    14 1   
    21    13    22 1   
    22    14    15 1   
    23    14    27 1   
    24    15    16 1   
    25    15    18 1   
    26    15    28 1   
    27    16    17 1   
    28    16    20 1   
    29    18    19 1   
    30    18    29 1   
    31    18    30 1   
    32    19    31 1   
@<TRIPOS>SUBSTRUCTURE
     1 UDS         1 TEMP              0 ****  ****    0 ROOT
