@<TRIPOS>MOLECULE
UDS
   31    32     1     0     0
SMALL
abcg2


@<TRIPOS>ATOM
      1 N1          -0.6730     5.1370    11.6030 nb         1 UDS      -0.611000
      2 C2          -1.8250     5.7410    11.4680 ca         1 UDS       0.235500
      3 C3          -2.2820     6.2800    10.2300 ca         1 UDS       0.158100
      4 C4          -1.4630     6.1410     9.1330 ca         1 UDS      -0.172000
      5 C5           0.6700     5.3180     8.1810 ca         1 UDS      -0.117000
      6 C6           1.8650     4.6840     8.3720 ca         1 UDS      -0.098000
      7 C7           2.2300     4.1960     9.6490 ca         1 UDS      -0.140000
      8 C8           1.3880     4.3500    10.7130 ca         1 UDS      -0.049000
      9 C9           0.1420     5.0000    10.5440 ca         1 UDS       0.225000
     10 C10         -0.2250     5.4940     9.2650 ca         1 UDS      -0.026000
     11 C11         -2.6920     5.8600    12.6830 c          1 UDS       0.482600
     12 O1          -3.7960     6.4220    12.6030 o          1 UDS      -0.692100
     13 O3          -3.4560     6.8990    10.1200 oh         1 UDS      -0.563100
     14 N           -2.2050     5.3370    13.7950 ns         1 UDS      -0.405900
     15 CA          -2.9020     5.2710    15.0600 c3         1 UDS      -0.099300
     16 C           -2.2410     4.1750    15.9410 c          1 UDS       0.730000
     17 O           -2.7890     3.9820    17.0370 o          1 UDS      -0.711500
     18 CB          -2.8960     6.6200    15.7750 c3         1 UDS       0.165600
     19 OG          -1.5990     7.0510    16.1130 oh         1 UDS      -0.658000
     20 OXT         -1.2390     3.6040    15.4710 o          1 UDS      -0.711500
     21 H4          -1.7740     6.5300     8.1710 ha         1 UDS       0.124000
     22 H3          -3.8760     6.8770    11.0170 ho         1 UDS       0.532000
     23 H5           0.3920     5.6920     7.2040 ha         1 UDS       0.108000
     24 H6           2.5440     4.5520     7.5400 ha         1 UDS       0.102000
     25 H7           3.1830     3.7010     9.7770 ha         1 UDS       0.109000
     26 H8           1.6510     3.9840    11.6970 ha         1 UDS       0.139000
     27 H           -1.3380     4.8140    13.7480 hn         1 UDS       0.372500
     28 HA          -3.9470     4.9900    14.8880 h1         1 UDS       0.062700
     29 HB1C        -3.4200     7.3650    15.1640 h1         1 UDS       0.039700
     30 HB2C        -3.4550     6.5190    16.7060 h1         1 UDS       0.039700
     31 HG          -1.1000     7.1620    15.2970 ho         1 UDS       0.428000
@<TRIPOS>BOND
     1     1     2 ar  
     2     1     9 ar  
     3     2     3 ar  
     4     2    11 1   
     5     3     4 ar  
     6     3    13 1   
     7     4    10 ar  
     8     4    21 1   
     9     5     6 ar  
    10     5    10 ar  
    11     5    23 1   
    12     6     7 ar  
    13     6    24 1   
    14     7     8 ar  
    15     7    25 1   
    16     8     9 ar  
    17     8    26 1   
    18     9    10 ar  
    19    11    12 2   
    20    11    14 1   
    21    13    22 1   
    22    14    15 1   
    23    14    27 1   
    24    15    16 1   
    25    15    18 1   
    26    15    28 1   
    27    16    17 1   
    28    16    20 1   
    29    18    19 1   
    30    18    29 1   
    31    18    30 1   
    32    19    31 1   
@<TRIPOS>SUBSTRUCTURE
     1 UDS         1 TEMP              0 ****  ****    0 ROOT
