@<TRIPOS>MOLECULE
UDT
   36    35     1     0     0
SMALL
No Charge or Current Charge


@<TRIPOS>ATOM
      1 C11          8.7480    -0.4670     0.0440 c3         1 UDT      -0.088100
      2 C10          7.4780     0.4050     0.0270 c3         1 UDT      -0.074400
      3 C9           6.1750    -0.4240     0.0340 c3         1 UDT      -0.075400
      4 C8           4.9020     0.4500     0.0170 c3         1 UDT      -0.074400
      5 C7           3.5990    -0.3790     0.0240 c3         1 UDT      -0.074400
      6 C6           2.3260     0.4950     0.0070 c3         1 UDT      -0.074400
      7 C5           1.0230    -0.3350     0.0140 c3         1 UDT      -0.074400
      8 C4          -0.2500     0.5400    -0.0030 c3         1 UDT      -0.074400
      9 C3          -1.5530    -0.2900     0.0030 c3         1 UDT      -0.084400
     10 C2          -2.8220     0.5830    -0.0130 c3         1 UDT       0.160600
     11 O2          -3.9560    -0.3000    -0.0060 os         1 UDT      -0.424100
     12 C1          -5.2030     0.2610    -0.0180 c          1 UDT       0.641700
     13 O1          -5.4390     1.4600    -0.0350 o          1 UDT      -0.474000
     14 S1          -6.4880    -0.9980    -0.0070 sh         1 UDT      -0.287400
     15 H111         8.7760    -1.0950     0.9430 hc         1 UDT       0.031367
     16 H112         8.7830    -1.1190    -0.8360 hc         1 UDT       0.031367
     17 H113         9.6450     0.1640     0.0390 hc         1 UDT       0.031367
     18 H101         7.4900     1.0700     0.9000 hc         1 UDT       0.036700
     19 H102         7.4970     1.0450    -0.8630 hc         1 UDT       0.036700
     20 H91          6.1670    -1.0890    -0.8390 hc         1 UDT       0.037200
     21 H92          6.1600    -1.0650     0.9250 hc         1 UDT       0.037200
     22 H81          4.9100     1.1150     0.8900 hc         1 UDT       0.037200
     23 H82          4.9160     1.0910    -0.8730 hc         1 UDT       0.037200
     24 H71          3.5910    -1.0440    -0.8490 hc         1 UDT       0.037700
     25 H72          3.5840    -1.0200     0.9150 hc         1 UDT       0.037700
     26 H61          2.3340     1.1590     0.8800 hc         1 UDT       0.037700
     27 H62          2.3410     1.1350    -0.8830 hc         1 UDT       0.037700
     28 H51          1.0150    -0.9990    -0.8600 hc         1 UDT       0.040200
     29 H52          1.0090    -0.9760     0.9040 hc         1 UDT       0.040200
     30 H41         -0.2420     1.2040     0.8700 hc         1 UDT       0.040700
     31 H42         -0.2350     1.1810    -0.8940 hc         1 UDT       0.040700
     32 H31         -1.5640    -0.9530    -0.8710 hc         1 UDT       0.056700
     33 H32         -1.5710    -0.9290     0.8940 hc         1 UDT       0.056700
     34 H21         -2.8310     1.2370     0.8690 h1         1 UDT       0.051700
     35 H22         -2.8240     1.2130    -0.9130 h1         1 UDT       0.051700
     36 HS1         -7.4650    -0.0650    -0.0230 hs         1 UDT       0.230800
@<TRIPOS>BOND
     1     1     2 1   
     2     1    15 1   
     3     1    16 1   
     4     1    17 1   
     5     2     3 1   
     6     2    18 1   
     7     2    19 1   
     8     3     4 1   
     9     3    20 1   
    10     3    21 1   
    11     4     5 1   
    12     4    22 1   
    13     4    23 1   
    14     5     6 1   
    15     5    24 1   
    16     5    25 1   
    17     6     7 1   
    18     6    26 1   
    19     6    27 1   
    20     7     8 1   
    21     7    28 1   
    22     7    29 1   
    23     8     9 1   
    24     8    30 1   
    25     8    31 1   
    26     9    10 1   
    27     9    32 1   
    28     9    33 1   
    29    10    11 1   
    30    10    34 1   
    31    10    35 1   
    32    11    12 1   
    33    12    13 2   
    34    12    14 1   
    35    14    36 1   
@<TRIPOS>SUBSTRUCTURE
     1 UDT         1 TEMP              0 ****  ****    0 ROOT
