@<TRIPOS>MOLECULE
UDT
   36    35     1     0     0
SMALL
bcc


@<TRIPOS>ATOM
      1 C11          8.6470    -0.4860     0.0380 c3         1 UDT      -0.088100
      2 C10          7.4060     0.3960     0.0260 c3         1 UDT      -0.074400
      3 C9           6.1120    -0.4090     0.0290 c3         1 UDT      -0.075400
      4 C8           4.8590     0.4570     0.0180 c3         1 UDT      -0.074400
      5 C7           3.5700    -0.3560     0.0250 c3         1 UDT      -0.074400
      6 C6           2.3130     0.5060     0.0130 c3         1 UDT      -0.074400
      7 C5           1.0290    -0.3140     0.0200 c3         1 UDT      -0.074400
      8 C4          -0.2300     0.5450     0.0040 c3         1 UDT      -0.074400
      9 C3          -1.5050    -0.2920     0.0130 c3         1 UDT      -0.084400
     10 C2          -2.7350     0.5870    -0.0130 c3         1 UDT       0.137400
     11 O2          -3.8910    -0.2770     0.0040 os         1 UDT      -0.400900
     12 C1          -5.0810     0.2850    -0.0270 c          1 UDT       0.690700
     13 O1          -5.3160     1.4600    -0.0670 o          1 UDT      -0.523000
     14 S1          -6.2910    -1.0100     0.0020 sh         1 UDT      -0.287400
     15 H111         8.6670    -1.1240     0.9230 hc         1 UDT       0.031367
     16 H112         8.6740    -1.1370    -0.8380 hc         1 UDT       0.031367
     17 H113         9.5640     0.1050     0.0370 hc         1 UDT       0.031367
     18 H101         7.4200     1.0610     0.8960 hc         1 UDT       0.036700
     19 H102         7.4260     1.0480    -0.8530 hc         1 UDT       0.036700
     20 H91          6.1000    -1.0760    -0.8420 hc         1 UDT       0.037200
     21 H92          6.0950    -1.0620     0.9090 hc         1 UDT       0.037200
     22 H81          4.8720     1.1250     0.8870 hc         1 UDT       0.037200
     23 H82          4.8740     1.1070    -0.8640 hc         1 UDT       0.037200
     24 H71          3.5590    -1.0240    -0.8440 hc         1 UDT       0.037700
     25 H72          3.5550    -1.0060     0.9070 hc         1 UDT       0.037700
     26 H61          2.3230     1.1740     0.8810 hc         1 UDT       0.037700
     27 H62          2.3260     1.1550    -0.8700 hc         1 UDT       0.037700
     28 H51          1.0210    -0.9840    -0.8470 hc         1 UDT       0.040200
     29 H52          1.0150    -0.9600     0.9040 hc         1 UDT       0.040200
     30 H41         -0.2240     1.2140     0.8710 hc         1 UDT       0.040700
     31 H42         -0.2190     1.1890    -0.8810 hc         1 UDT       0.040700
     32 H31         -1.5110    -0.9590    -0.8540 hc         1 UDT       0.056700
     33 H32         -1.5220    -0.9240     0.9050 hc         1 UDT       0.056700
     34 H21         -2.7630     1.2470     0.8570 h1         1 UDT       0.051700
     35 H22         -2.7560     1.2050    -0.9130 h1         1 UDT       0.051700
     36 HS1         -7.3560    -0.2030    -0.0430 hs         1 UDT       0.230800
@<TRIPOS>BOND
     1     1     2 1   
     2     1    15 1   
     3     1    16 1   
     4     1    17 1   
     5     2     3 1   
     6     2    18 1   
     7     2    19 1   
     8     3     4 1   
     9     3    20 1   
    10     3    21 1   
    11     4     5 1   
    12     4    22 1   
    13     4    23 1   
    14     5     6 1   
    15     5    24 1   
    16     5    25 1   
    17     6     7 1   
    18     6    26 1   
    19     6    27 1   
    20     7     8 1   
    21     7    28 1   
    22     7    29 1   
    23     8     9 1   
    24     8    30 1   
    25     8    31 1   
    26     9    10 1   
    27     9    32 1   
    28     9    33 1   
    29    10    11 1   
    30    10    34 1   
    31    10    35 1   
    32    11    12 1   
    33    12    13 2   
    34    12    14 1   
    35    14    36 1   
@<TRIPOS>SUBSTRUCTURE
     1 UDT         1 TEMP              0 ****  ****    0 ROOT
