@<TRIPOS>MOLECULE
UDU
  191   200     1     0     0
SMALL
abcg2


@<TRIPOS>ATOM
      1 N1         207.9120   213.1000   202.4470 ns         1 UDU      -0.481900
      2 N3         208.6090   217.8660   205.2090 n          1 UDU      -0.377800
      3 C4         206.6750   219.2610   204.6600 c          1 UDU       0.600100
      4 C5         206.7130   217.1660   199.7450 ca         1 UDU      -0.093300
      5 C6         207.4010   216.1930   199.0300 ca         1 UDU      -0.087000
      6 C7         208.5900   216.5050   198.3810 ca         1 UDU      -0.119000
      7 C8         210.2630   212.2680   202.5310 c3         1 UDU      -0.110400
      8 C10        208.4390   218.7600   199.1770 ca         1 UDU      -0.119000
      9 N12        218.1490   209.3080   206.2590 n          1 UDU      -0.390800
     10 C13        204.6890   213.2980   200.9730 c3         1 UDU       0.165300
     11 C15        207.0900   212.7860   201.4400 c          1 UDU       0.606100
     12 C17        203.2280   213.0590   201.2940 c3         1 UDU      -0.116100
     13 C20        203.8780   213.2290   206.8890 ca         1 UDU       0.287900
     14 C21        210.1870   216.8950   203.5690 c5         1 UDU       0.038700
     15 C22        203.7820   212.2470   207.8770 ca         1 UDU      -0.095000
     16 C24        204.2000   210.9660   207.5960 ca         1 UDU      -0.134000
     17 C26        210.0500   211.1590   201.5070 c3         1 UDU       0.074600
     18 C28        207.0910   218.5950   207.0440 c3         1 UDU      -0.038100
     19 C1         209.3080   213.4360   202.2730 c3         1 UDU       0.044700
     20 C2         205.3870   216.9170   200.4430 c3         1 UDU       0.111000
     21 N2         210.1300   215.6980   202.7470 n          1 UDU      -0.394800
     22 C3         204.8530   215.5180   200.1710 c          1 UDU       0.594100
     23 O3         216.3180   207.5240   203.7730 os         1 UDU      -0.461100
     24 N4         205.4940   219.1180   204.0120 n          1 UDU      -0.398800
     25 N5         205.4930   217.2380   201.8420 ns         1 UDU      -0.475900
     26 N6         205.3670   212.5650   203.2360 ns         1 UDU      -0.473900
     27 N7         204.3500   212.9650   205.6900 nb         1 UDU      -0.641000
     28 O7         220.8440   208.1280   209.7310 os         1 UDU      -0.252000
     29 N8         210.9300   210.0350   201.7410 na         1 UDU       0.127800
     30 C9         209.1060   217.7900   198.4390 ca         1 UDU      -0.110000
     31 N9         211.4380   208.0400   202.2070 nc         1 UDU      -0.357000
     32 O9         207.3340   220.2870   204.5830 o          1 UDU      -0.609100
     33 N10        210.4440   208.8500   202.0610 nd         1 UDU      -0.186800
     34 C11        207.2520   218.4500   199.8220 ca         1 UDU      -0.087000
     35 N11        218.9450   208.9630   209.0330 nc         1 UDU      -0.669000
     36 O11        201.9230   219.4510   203.0780 oh         1 UDU      -0.684000
     37 C12        205.0040   217.4680   207.8910 ca         1 UDU      -0.104500
     38 O12        204.3410   215.2260   199.1230 o          1 UDU      -0.473000
     39 N13        213.0560   210.5550   206.6210 ns         1 UDU      -0.513900
     40 O13        205.0440   214.6780   201.1770 os         1 UDU      -0.440100
     41 C14        205.6420   212.4610   201.8260 c3         1 UDU       0.027700
     42 O14        207.4200   212.7620   200.2640 o          1 UDU      -0.622100
     43 C16        209.7530   218.4050   205.9330 c3         1 UDU       0.090300
     44 C18        205.2660   211.4850   204.0280 c          1 UDU       0.513600
     45 C19        204.7580   211.7320   205.4000 ca         1 UDU       0.160500
     46 C23        204.6210   217.9540   204.0030 c6         1 UDU       0.048700
     47 C25        204.6850   210.6740   206.3170 ca         1 UDU       0.185100
     48 C27        212.2710   209.9960   201.6620 cd         1 UDU      -0.230000
     49 C29        212.5920   208.7010   201.9810 cc         1 UDU       0.206300
     50 C31        213.2910   208.8650   204.9760 ce         1 UDU      -0.313200
     51 C32        213.5200   207.5980   204.6420 c2         1 UDU      -0.112200
     52 C33        212.9230   209.2370   206.3630 c          1 UDU       0.609300
     53 C34        209.5840   214.5840   203.2410 c          1 UDU       0.603100
     54 C35        208.7760   217.2430   204.0340 c          1 UDU       0.612100
     55 C36        219.4310   209.1820   211.4480 c3         1 UDU      -0.122700
     56 C37        213.9870   207.0810   203.3150 c3         1 UDU      -0.051500
     57 C38        215.3860   206.4650   203.4940 c3         1 UDU       0.183300
     58 C39        218.5630   210.4300   211.4490 c3         1 UDU       0.192300
     59 C40        205.6660   218.6380   207.5230 ca         1 UDU      -0.095300
     60 C41        216.6170   207.8690   205.0160 c          1 UDU       0.593100
     61 C42        217.4200   209.1560   205.0170 c5         1 UDU       0.052700
     62 C43        214.3690   211.4190   209.7920 ce         1 UDU      -0.161000
     63 C44        216.5080   210.3960   204.9650 c5         1 UDU      -0.086400
     64 C45        204.3950   217.4640   202.5630 c          1 UDU       0.586100
     65 C46        217.2530   211.4050   205.8290 c5         1 UDU      -0.102400
     66 C47        217.7860   210.5390   206.9580 c5         1 UDU       0.120000
     67 C48        210.7230   217.9710   202.6070 c5         1 UDU      -0.086400
     68 C49        217.8750   210.7200   212.7620 c3         1 UDU      -0.140400
     69 C50        219.0780   208.3910   206.5860 c          1 UDU       0.559600
     70 C52        204.9790   219.8460   207.5960 ca         1 UDU      -0.104500
     71 C53        212.7610   211.1670   207.9020 c3         1 UDU       0.133200
     72 C54        213.9840   211.7410   208.5530 c2         1 UDU      -0.235200
     73 C56        204.8670   220.2850   203.3930 c6         1 UDU       0.085000
     74 C57        215.5360   211.9530   210.5000 ce         1 UDU      -0.065200
     75 C58        215.7510   211.5500   211.7630 c2         1 UDU      -0.208200
     76 C59        216.8960   211.9030   212.6630 c3         1 UDU       0.213500
     77 C60        219.6090   208.4150   207.9610 cc         1 UDU       0.184500
     78 C61        211.4760   217.1700   201.5510 c5         1 UDU      -0.091400
     79 C62        216.4120   212.9130   209.7520 c3         1 UDU      -0.060900
     80 C63        220.7780   207.8960   208.4030 cd         1 UDU       0.169900
     81 C64        203.6630   219.8890   208.0410 ca         1 UDU      -0.111500
     82 C65        213.9410   208.0930   202.1680 c3         1 UDU      -0.082700
     83 C66        219.7050   208.7660   210.0470 cd         1 UDU       0.441300
     84 C67        203.6510   220.6930   204.2130 c6         1 UDU      -0.118400
     85 C68        210.6300   215.9180   201.3940 c5         1 UDU       0.102000
     86 C69        207.2210   218.1570   205.5790 c3         1 UDU       0.048700
     87 C70        203.0070   218.7160   208.3860 ca         1 UDU      -0.104000
     88 C71        203.6890   217.5060   208.3310 ca         1 UDU      -0.111500
     89 C72        202.6250   219.5620   204.2970 c6         1 UDU       0.186300
     90 C73        203.3130   218.2650   204.7300 c6         1 UDU      -0.127400
     91 F1         219.3740   211.5150   211.0920 f          1 UDU      -0.273000
     92 H81        207.5690   213.0270   203.3940 hn         1 UDU       0.348500
     93 H6         207.0310   215.1790   198.9540 ha         1 UDU       0.128000
     94 H7         209.1120   215.7330   197.8300 ha         1 UDU       0.116000
     95 H9         210.1560   211.8810   203.5480 hc         1 UDU       0.064200
     96 H8         211.2860   212.6470   202.4470 hc         1 UDU       0.064200
     97 H11        208.8380   219.7640   199.2440 ha         1 UDU       0.116000
     98 H13        204.8760   213.0290   199.9330 h1         1 UDU       0.093700
     99 H20        202.9880   212.0100   201.1190 hc         1 UDU       0.056367
    100 H19        202.9780   213.3010   202.3260 hc         1 UDU       0.056367
    101 H18        202.5910   213.6510   200.6390 hc         1 UDU       0.056367
    102 H21        203.5570   214.2450   207.0830 h4         1 UDU       0.023100
    103 H22        210.8730   216.7420   204.4030 h1         1 UDU       0.079700
    104 H23        203.3820   212.4940   208.8500 ha         1 UDU       0.128000
    105 H24        204.1320   210.1790   208.3360 ha         1 UDU       0.143000
    106 H26        210.2130   211.5300   200.4950 h1         1 UDU       0.085200
    107 H25        209.0390   210.7620   201.5600 h1         1 UDU       0.085200
    108 H29        207.6530   217.8870   207.6580 hc         1 UDU       0.066200
    109 H28        207.5420   219.5760   207.1930 hc         1 UDU       0.066200
    110 H1         209.4310   213.7620   201.2400 h1         1 UDU       0.087700
    111 H5         204.6520   217.5910   199.9890 h1         1 UDU       0.102700
    112 H84        206.4070   217.2680   202.2880 hn         1 UDU       0.376500
    113 H82        204.9990   213.4290   203.6160 hn         1 UDU       0.360500
    114 H10        210.0270   218.0320   197.9250 ha         1 UDU       0.112000
    115 H12        206.7320   219.2200   200.3810 ha         1 UDU       0.128000
    116 H85        202.1790   218.6150   202.6570 ho         1 UDU       0.482000
    117 H2         205.5310   216.5220   207.8510 ha         1 UDU       0.118500
    118 H83        213.2740   211.1680   205.8500 hn         1 UDU       0.301500
    119 H14        205.4830   211.4220   201.5240 h1         1 UDU       0.110700
    120 H17        209.4280   218.9190   206.8280 h1         1 UDU       0.047367
    121 H16        210.4250   217.6110   206.2530 h1         1 UDU       0.047367
    122 H15        210.3090   219.1230   205.3320 h1         1 UDU       0.047367
    123 H86        205.3600   209.4200   205.0970 ho         1 UDU       0.525000
    124 H3         205.1090   217.1280   204.5200 h1         1 UDU       0.080700
    125 H27        212.8760   210.8620   201.4530 h4         1 UDU       0.160000
    126 H31        213.4320   209.6710   204.2650 ha         1 UDU       0.169000
    127 H32        213.3700   206.8330   205.3970 ha         1 UDU       0.205000
    128 H35        218.8970   208.3790   211.9650 hc         1 UDU       0.080700
    129 H33        220.3590   209.3470   211.9980 hc         1 UDU       0.080700
    130 H36        213.3200   206.2480   203.0720 hc         1 UDU       0.091700
    131 H37        215.3540   205.7710   204.3410 h1         1 UDU       0.075700
    132 H38        217.8080   210.3320   210.6670 h1         1 UDU       0.090700
    133 H39        218.0970   209.1560   204.1580 h1         1 UDU       0.088700
    134 H40        213.7770   210.6900   210.3420 ha         1 UDU       0.180000
    135 H41        216.3450   210.7270   203.9410 hc         1 UDU       0.060700
    136 H42        215.5340   210.1910   205.4150 hc         1 UDU       0.060700
    137 H43        218.0770   211.8560   205.2740 hc         1 UDU       0.052700
    138 H44        216.6110   212.2060   206.1930 hc         1 UDU       0.052700
    139 H46        218.6420   210.9780   207.4640 h1         1 UDU       0.066700
    140 H47        217.0100   210.3590   207.7070 h1         1 UDU       0.066700
    141 H49        211.3470   218.7000   203.1200 hc         1 UDU       0.067700
    142 H48        209.8960   218.5120   202.1420 hc         1 UDU       0.067700
    143 H50        217.3180   209.8260   213.0580 hc         1 UDU       0.060200
    144 H51        218.6190   210.9110   213.5430 hc         1 UDU       0.060200
    145 H54        218.0330   205.7700   202.9630 hc         1 UDU       0.040367
    146 H53        217.1390   204.3380   203.4820 hc         1 UDU       0.040367
    147 H52        217.6760   204.4920   201.8110 hc         1 UDU       0.040367
    148 H55        205.4870   220.7650   207.3290 ha         1 UDU       0.118500
    149 H58        212.0090   211.9480   207.7510 h1         1 UDU       0.062200
    150 H57        212.3070   210.4150   208.5440 h1         1 UDU       0.062200
    151 H59        214.5460   212.4620   207.9660 ha         1 UDU       0.163000
    152 H61        214.0240   205.0760   201.4460 hc         1 UDU       0.040367
    153 H60        215.4040   204.1150   200.9370 hc         1 UDU       0.040367
    154 H62        214.7460   203.9190   202.5590 hc         1 UDU       0.040367
    155 H45        205.5910   221.0910   203.3300 h1         1 UDU       0.067200
    156 H34        204.5830   220.0430   202.3650 h1         1 UDU       0.067200
    157 H63        215.0560   210.8310   212.1920 ha         1 UDU       0.186000
    158 H64        217.4350   212.7770   212.2830 h1         1 UDU       0.047700
    159 H66        212.4770   216.9110   201.9010 hc         1 UDU       0.058700
    160 H65        211.5790   217.7110   200.6120 hc         1 UDU       0.058700
    161 H69        217.2320   213.2970   210.3510 hc         1 UDU       0.043367
    162 H68        216.8470   212.4250   208.8770 hc         1 UDU       0.043367
    163 H70        215.8360   213.7650   209.3860 hc         1 UDU       0.043367
    164 H71        221.6030   207.3870   207.9340 h4         1 UDU       0.081100
    165 H72        203.1510   220.8400   208.1140 ha         1 UDU       0.116000
    166 H73        214.2520   207.5960   201.2450 hc         1 UDU       0.055200
    167 H74        214.6630   208.8950   202.3340 hc         1 UDU       0.055200
    168 H56        203.9820   220.9570   205.2200 hc         1 UDU       0.057200
    169 H67        203.1880   221.5830   203.7800 hc         1 UDU       0.057200
    170 H75        209.8040   216.0890   200.7000 h1         1 UDU       0.059700
    171 H76        211.2100   215.0670   201.0410 h1         1 UDU       0.059700
    172 H77        206.6750   217.2190   205.4850 h1         1 UDU       0.083700
    173 H79        201.9800   218.7470   208.7260 ha         1 UDU       0.118000
    174 H80        203.1930   216.5880   208.6220 ha         1 UDU       0.116000
    175 H78        201.9050   219.8100   205.0880 h1         1 UDU       0.051700
    176 H88        202.6300   217.4170   204.6510 hc         1 UDU       0.068200
    177 H4         203.5540   218.3580   205.7860 hc         1 UDU       0.068200
    178 O1         209.2580   214.4780   204.4170 o          1 UDU      -0.609100
    179 O8         207.8270   216.9690   203.3090 o          1 UDU      -0.644100
    180 O10        203.2700   217.2790   202.1020 o          1 UDU      -0.633100
    181 O4         216.2870   207.2710   206.0050 o          1 UDU      -0.456000
    182 O2         212.5710   208.4180   207.2030 o          1 UDU      -0.594100
    183 O5         219.4610   207.5400   205.7900 o          1 UDU      -0.604100
    184 O6         216.3380   212.1910   213.9310 oh         1 UDU      -0.653000
    185 O15        205.5920   210.3520   203.6670 o          1 UDU      -0.635100
    186 O16        205.0560   209.4310   206.0340 oh         1 UDU      -0.526100
    187 C30        215.9500   205.7070   202.2880 c3         1 UDU      -0.062700
    188 C51        217.2760   205.0460   202.6610 c3         1 UDU      -0.092600
    189 C55        214.9710   204.6520   201.7810 c3         1 UDU      -0.092600
    190 H87        217.0540   212.4400   214.5250 ho         1 UDU       0.443000
    191 H30        216.1330   206.4220   201.4790 hc         1 UDU       0.056700
@<TRIPOS>BOND
     1     1    11 1   
     2     1    19 1   
     3     1    92 1   
     4     2    43 1   
     5     2    54 1   
     6     2    86 1   
     7     3    24 1   
     8     3    32 2   
     9     3    86 1   
    10     4     5 ar  
    11     4    20 1   
    12     4    34 ar  
    13     5     6 ar  
    14     5    93 1   
    15     6    30 ar  
    16     6    94 1   
    17     7    17 1   
    18     7    19 1   
    19     7    95 1   
    20     7    96 1   
    21     8    30 ar  
    22     8    34 ar  
    23     8    97 1   
    24     9    61 1   
    25     9    66 1   
    26     9    69 1   
    27    10    12 1   
    28    10    40 1   
    29    10    41 1   
    30    10    98 1   
    31    11    41 1   
    32    11    42 2   
    33    12    99 1   
    34    12   100 1   
    35    12   101 1   
    36    13    15 ar  
    37    13    27 ar  
    38    13   102 1   
    39    14    21 1   
    40    14    54 1   
    41    14    67 1   
    42    14   103 1   
    43    15    16 ar  
    44    15   104 1   
    45    16    47 ar  
    46    16   105 1   
    47    17    29 1   
    48    17   106 1   
    49    17   107 1   
    50    18    59 1   
    51    18    86 1   
    52    18   108 1   
    53    18   109 1   
    54    19    53 1   
    55    19   110 1   
    56    20    22 1   
    57    20    25 1   
    58    20   111 1   
    59    21    53 1   
    60    21    85 1   
    61    22    38 2   
    62    22    40 1   
    63    23    57 1   
    64    23    60 1   
    65    24    46 1   
    66    24    73 1   
    67    25    64 1   
    68    25   112 1   
    69    26    41 1   
    70    26    44 1   
    71    26   113 1   
    72    27    45 ar  
    73    28    80 1   
    74    28    83 1   
    75    29    33 1   
    76    29    48 1   
    77    30   114 1   
    78    31    33 2   
    79    31    49 1   
    80    34   115 1   
    81    35    77 1   
    82    35    83 2   
    83    36    89 1   
    84    36   116 1   
    85    37    59 ar  
    86    37    88 ar  
    87    37   117 1   
    88    39    52 1   
    89    39    71 1   
    90    39   118 1   
    91    41   119 1   
    92    43   120 1   
    93    43   121 1   
    94    43   122 1   
    95    44    45 1   
    96    44   185 2   
    97    45    47 ar  
    98    46    64 1   
    99    46    90 1   
   100    46   124 1   
   101    47   186 1   
   102    48    49 2   
   103    48   125 1   
   104    49    82 1   
   105    50    51 2   
   106    50    52 1   
   107    50   126 1   
   108    51    56 1   
   109    51   127 1   
   110    52   182 2   
   111    53   178 2   
   112    54   179 2   
   113    55    58 1   
   114    55    83 1   
   115    55   128 1   
   116    55   129 1   
   117    56    57 1   
   118    56    82 1   
   119    56   130 1   
   120    57   131 1   
   121    57   187 1   
   122    58    68 1   
   123    58    91 1   
   124    58   132 1   
   125    59    70 ar  
   126    60    61 1   
   127    60   181 2   
   128    61    63 1   
   129    61   133 1   
   130    62    72 2   
   131    62    74 1   
   132    62   134 1   
   133    63    65 1   
   134    63   135 1   
   135    63   136 1   
   136    64   180 2   
   137    65    66 1   
   138    65   137 1   
   139    65   138 1   
   140    66   139 1   
   141    66   140 1   
   142    67    78 1   
   143    67   141 1   
   144    67   142 1   
   145    68    76 1   
   146    68   143 1   
   147    68   144 1   
   148    69    77 1   
   149    69   183 2   
   150    70    81 ar  
   151    70   148 1   
   152    71    72 1   
   153    71   149 1   
   154    71   150 1   
   155    72   151 1   
   156    73    84 1   
   157    73   155 1   
   158    73   156 1   
   159    74    75 2   
   160    74    79 1   
   161    75    76 1   
   162    75   157 1   
   163    76   158 1   
   164    76   184 1   
   165    77    80 2   
   166    78    85 1   
   167    78   159 1   
   168    78   160 1   
   169    79   161 1   
   170    79   162 1   
   171    79   163 1   
   172    80   164 1   
   173    81    87 ar  
   174    81   165 1   
   175    82   166 1   
   176    82   167 1   
   177    84    89 1   
   178    84   168 1   
   179    84   169 1   
   180    85   170 1   
   181    85   171 1   
   182    86   172 1   
   183    87    88 ar  
   184    87   173 1   
   185    88   174 1   
   186    89    90 1   
   187    89   175 1   
   188    90   176 1   
   189    90   177 1   
   190   123   186 1   
   191   145   188 1   
   192   146   188 1   
   193   147   188 1   
   194   152   189 1   
   195   153   189 1   
   196   154   189 1   
   197   184   190 1   
   198   187   188 1   
   199   187   189 1   
   200   187   191 1   
@<TRIPOS>SUBSTRUCTURE
     1 UDU         1 TEMP              0 ****  ****    0 ROOT
