@<TRIPOS>MOLECULE
UDU
  191   200     1     0     0
SMALL
No Charge or Current Charge


@<TRIPOS>ATOM
      1 N1         207.8440   212.5660   202.2270 ns         1 UDU      -0.481900
      2 N3         209.5380   216.7590   206.4110 n          1 UDU      -0.377800
      3 C4         207.7040   218.5630   206.1810 c          1 UDU       0.600100
      4 C5         207.3830   217.3790   200.4150 ca         1 UDU      -0.093300
      5 C6         208.2920   216.3250   200.6530 ca         1 UDU      -0.087000
      6 C7         209.6170   216.4140   200.1930 ca         1 UDU      -0.119000
      7 C8         210.0060   211.3260   202.4220 c3         1 UDU      -0.110400
      8 C10        209.1590   218.6270   199.2910 ca         1 UDU      -0.119000
      9 N12        217.6870   209.7000   205.9280 n          1 UDU      -0.390800
     10 C13        204.9700   213.6390   200.2550 c3         1 UDU       0.165300
     11 C15        207.1650   212.5540   201.0250 c          1 UDU       0.606100
     12 C17        203.4240   213.5680   200.2270 c3         1 UDU      -0.116100
     13 C20        203.6950   213.6580   206.2300 ca         1 UDU       0.287900
     14 C21        210.9180   215.2830   204.9490 c5         1 UDU       0.038700
     15 C22        203.0180   212.7640   207.0780 ca         1 UDU      -0.095000
     16 C24        202.8110   211.4380   206.6550 ca         1 UDU      -0.134000
     17 C26        209.9720   210.5680   201.0720 c3         1 UDU       0.074600
     18 C28        207.9360   217.2650   208.3590 c3         1 UDU      -0.038100
     19 C1         209.3070   212.7100   202.4070 c3         1 UDU       0.044700
     20 C2         205.9170   217.2590   200.8410 c3         1 UDU       0.111000
     21 N2         210.7520   214.2790   203.8520 n          1 UDU      -0.394800
     22 C3         205.2620   216.0570   200.1070 c          1 UDU       0.594100
     23 O3         216.0920   207.2300   203.5860 os         1 UDU      -0.461100
     24 N4         206.3510   218.6520   205.7740 n          1 UDU      -0.398800
     25 N5         205.7200   217.1500   202.3070 ns         1 UDU      -0.475900
     26 N6         205.1410   212.6050   202.5280 ns         1 UDU      -0.473900
     27 N7         204.1630   213.3030   205.0110 nb         1 UDU      -0.641000
     28 O7         219.1190   209.8330   210.4590 os         1 UDU      -0.252000
     29 N8         210.7930   209.3500   201.1040 na         1 UDU       0.127800
     30 C9         210.0530   217.5660   199.5170 ca         1 UDU      -0.110000
     31 N9         211.2300   207.2450   201.3090 nc         1 UDU      -0.357000
     32 O9         208.4300   219.5540   206.1760 o          1 UDU      -0.609100
     33 N10        210.2440   208.0930   201.1430 nd         1 UDU      -0.186800
     34 C11        207.8270   218.5320   199.7320 ca         1 UDU      -0.087000
     35 N11        217.9640   210.8330   208.7730 nc         1 UDU      -0.669000
     36 O11        203.5400   219.3190   203.5250 oh         1 UDU      -0.684000
     37 C12        205.6630   216.1610   208.6590 ca         1 UDU      -0.104500
     38 O12        204.8690   216.1060   198.9490 o          1 UDU      -0.473000
     39 N13        212.4950   210.8330   205.3390 ns         1 UDU      -0.513900
     40 O13        205.3600   214.8960   200.8450 os         1 UDU      -0.440100
     41 C14        205.6120   212.5210   201.1190 c3         1 UDU       0.027700
     42 O14        207.7600   212.5920   199.9570 o          1 UDU      -0.622100
     43 C16        210.7240   217.2040   207.1890 c3         1 UDU       0.090300
     44 C18        204.4920   211.6070   203.2190 c          1 UDU       0.513600
     45 C19        203.9670   212.0130   204.5910 ca         1 UDU       0.160500
     46 C23        205.8260   217.6870   204.7480 c6         1 UDU       0.048700
     47 C25        203.2900   211.0520   205.3940 ca         1 UDU       0.185100
     48 C27        212.1600   209.2810   201.2230 cd         1 UDU      -0.230000
     49 C29        212.3950   207.9540   201.3920 cc         1 UDU       0.206300
     50 C31        213.0920   208.7460   204.3290 ce         1 UDU      -0.313200
     51 C32        213.1440   207.3960   204.2140 c2         1 UDU      -0.112200
     52 C33        212.4430   209.4650   205.4560 c          1 UDU       0.609300
     53 C34        209.5760   213.4980   203.7280 c          1 UDU       0.603100
     54 C35        209.6910   216.2590   205.0930 c          1 UDU       0.612100
     55 C36        217.9390   211.9510   211.0140 c3         1 UDU      -0.122700
     56 C37        213.7800   206.5880   203.0830 c3         1 UDU      -0.051500
     57 C38        215.2140   206.0840   203.4690 c3         1 UDU       0.183300
     58 C39        217.1270   213.1050   210.3770 c3         1 UDU       0.192300
     59 C40        206.4570   217.3230   208.7250 ca         1 UDU      -0.095300
     60 C41        216.2880   207.8200   204.8140 c          1 UDU       0.593100
     61 C42        217.2430   209.0480   204.6590 c5         1 UDU       0.052700
     62 C43        213.1290   213.2090   208.0800 ce         1 UDU      -0.161000
     63 C44        216.4640   210.2080   203.9650 c5         1 UDU      -0.086400
     64 C45        206.2400   218.0000   203.2640 c          1 UDU       0.586100
     65 C46        217.2600   211.4500   204.4210 c5         1 UDU      -0.102400
     66 C47        217.4360   211.1600   205.9320 c5         1 UDU       0.120000
     67 C48        212.1830   216.0680   204.4740 c5         1 UDU      -0.086400
     68 C49        216.3580   213.9700   211.4040 c3         1 UDU      -0.140400
     69 C50        218.3440   208.9810   206.9660 c          1 UDU       0.559600
     70 C52        205.8720   218.5390   209.1300 ca         1 UDU      -0.104500
     71 C53        211.9690   211.7810   206.3190 c3         1 UDU       0.133200
     72 C54        213.0930   212.6410   206.8510 c2         1 UDU      -0.235200
     73 C56        205.6650   219.9710   205.7150 c6         1 UDU       0.085000
     74 C57        214.2500   214.0010   208.6240 ce         1 UDU      -0.065200
     75 C58        214.2980   214.2580   209.9560 c2         1 UDU      -0.208200
     76 C59        215.3770   214.9730   210.7510 c3         1 UDU       0.213500
     77 C60        218.4870   209.6450   208.3130 cc         1 UDU       0.184500
     78 C61        212.9710   214.9890   203.6910 c5         1 UDU      -0.091400
     79 C62        215.3010   214.4920   207.6300 c3         1 UDU      -0.060900
     80 C63        219.1680   209.0540   209.3420 cd         1 UDU       0.169900
     81 C64        204.5080   218.5930   209.4670 ca         1 UDU      -0.111500
     82 C65        213.7190   207.3010   201.6940 c3         1 UDU      -0.082700
     83 C66        218.3760   210.8980   210.0300 cd         1 UDU       0.441300
     84 C67        204.1250   219.8340   205.8460 c6         1 UDU      -0.118400
     85 C68        211.8510   214.3130   202.8640 c5         1 UDU       0.102000
     86 C69        208.1690   217.2170   206.8240 c3         1 UDU       0.048700
     87 C70        203.7210   217.4310   209.4000 ca         1 UDU      -0.104000
     88 C71        204.2990   216.2150   208.9990 ca         1 UDU      -0.111500
     89 C72        203.5190   218.8080   204.8600 c6         1 UDU       0.186300
     90 C73        204.2950   217.4730   204.9390 c6         1 UDU      -0.127400
     91 F1         217.9660   213.9040   209.6700 f          1 UDU      -0.273000
     92 H81        207.2680   212.5440   203.0630 hn         1 UDU       0.348500
     93 H6         207.9690   215.4310   201.1830 ha         1 UDU       0.128000
     94 H7         210.3030   215.5860   200.3520 ha         1 UDU       0.116000
     95 H9         209.5480   210.6980   203.1980 hc         1 UDU       0.064200
     96 H8         211.0520   211.4570   202.7210 hc         1 UDU       0.064200
     97 H11        209.4940   219.5190   198.7650 ha         1 UDU       0.116000
     98 H13        205.3560   213.5460   199.2280 h1         1 UDU       0.093700
     99 H20        203.0930   212.5670   199.9260 hc         1 UDU       0.056367
    100 H19        203.0010   213.7850   201.2140 hc         1 UDU       0.056367
    101 H18        203.0080   214.2850   199.5100 hc         1 UDU       0.056367
    102 H21        203.8670   214.6900   206.5320 h4         1 UDU       0.023100
    103 H22        211.0900   214.7720   205.9060 h1         1 UDU       0.079700
    104 H23        202.6590   213.0990   208.0480 ha         1 UDU       0.128000
    105 H24        202.2900   210.7260   207.2910 ha         1 UDU       0.143000
    106 H26        210.3530   211.2160   200.2720 h1         1 UDU       0.085200
    107 H25        208.9400   210.2920   200.8220 h1         1 UDU       0.085200
    108 H29        208.3840   216.3730   208.8150 hc         1 UDU       0.066200
    109 H28        208.4570   218.1280   208.7910 hc         1 UDU       0.066200
    110 H1         209.7050   213.3140   201.5810 h1         1 UDU       0.087700
    111 H5         205.3710   218.1490   200.5030 h1         1 UDU       0.102700
    112 H84        205.1230   216.4050   202.6430 hn         1 UDU       0.376500
    113 H82        205.1420   213.5100   202.9920 hn         1 UDU       0.360500
    114 H10        211.0810   217.6340   199.1650 ha         1 UDU       0.112000
    115 H12        207.1400   219.3550   199.5390 ha         1 UDU       0.128000
    116 H85        202.9170   220.0800   203.5030 ho         1 UDU       0.482000
    117 H2         206.1020   215.2150   208.3500 ha         1 UDU       0.118500
    118 H83        212.9580   211.2020   204.5190 hn         1 UDU       0.301500
    119 H14        205.3140   211.5510   200.7010 h1         1 UDU       0.110700
    120 H17        210.4450   217.8630   208.0190 h1         1 UDU       0.047367
    121 H16        211.2560   216.3330   207.5960 h1         1 UDU       0.047367
    122 H15        211.3990   217.7740   206.5380 h1         1 UDU       0.047367
    123 H86        203.5010   209.7000   204.0620 ho         1 UDU       0.525000
    124 H3         206.2740   216.7020   204.9160 h1         1 UDU       0.080700
    125 H27        212.8170   210.1400   201.2380 h4         1 UDU       0.160000
    126 H31        213.5320   209.3760   203.5640 ha         1 UDU       0.169000
    127 H32        212.6950   206.7720   204.9920 ha         1 UDU       0.205000
    128 H35        217.3240   211.4640   211.7800 hc         1 UDU       0.080700
    129 H33        218.8130   212.3620   211.5310 hc         1 UDU       0.080700
    130 H36        213.1510   205.6940   202.9850 hc         1 UDU       0.091700
    131 H37        215.1410   205.5430   204.4240 h1         1 UDU       0.075700
    132 H38        216.3970   212.6690   209.6810 h1         1 UDU       0.090700
    133 H39        218.1090   208.7360   204.0600 h1         1 UDU       0.088700
    134 H40        212.2870   213.0500   208.7590 ha         1 UDU       0.180000
    135 H41        216.4200   210.0980   202.8750 hc         1 UDU       0.060700
    136 H42        215.4360   210.2750   204.3350 hc         1 UDU       0.060700
    137 H43        218.2310   211.5110   203.9130 hc         1 UDU       0.052700
    138 H44        216.7290   212.3910   204.2330 hc         1 UDU       0.052700
    139 H46        218.2740   211.7360   206.3480 h1         1 UDU       0.066700
    140 H47        216.5230   211.3980   206.4970 h1         1 UDU       0.066700
    141 H49        212.7700   216.4810   205.3040 hc         1 UDU       0.067700
    142 H48        211.9120   216.9050   203.8160 hc         1 UDU       0.067700
    143 H50        215.7900   213.3090   212.0720 hc         1 UDU       0.060200
    144 H51        217.0810   214.5100   212.0280 hc         1 UDU       0.060200
    145 H54        217.9660   205.5360   203.0400 hc         1 UDU       0.040367
    146 H53        217.2460   204.1570   203.8990 hc         1 UDU       0.040367
    147 H52        217.7630   203.9890   202.2080 hc         1 UDU       0.040367
    148 H55        206.4710   219.4460   209.1810 ha         1 UDU       0.118500
    149 H58        211.2100   212.4080   205.8330 h1         1 UDU       0.062200
    150 H57        211.4820   211.2430   207.1440 h1         1 UDU       0.062200
    151 H59        213.9280   212.7490   206.1590 ha         1 UDU       0.163000
    152 H61        214.0980   204.1080   201.6450 hc         1 UDU       0.040367
    153 H60        215.5720   203.1490   201.5090 hc         1 UDU       0.040367
    154 H62        214.7760   203.3170   203.0880 hc         1 UDU       0.040367
    155 H45        206.0360   220.6160   206.5250 h1         1 UDU       0.067200
    156 H34        205.9110   220.4700   204.7660 h1         1 UDU       0.067200
    157 H63        213.5040   213.8750   210.5980 ha         1 UDU       0.186000
    158 H64        215.9460   215.6530   210.1050 h1         1 UDU       0.047700
    159 H66        213.4480   214.2730   204.3710 hc         1 UDU       0.058700
    160 H65        213.7590   215.4140   203.0590 hc         1 UDU       0.058700
    161 H69        215.9230   215.3040   208.0240 hc         1 UDU       0.043367
    162 H68        215.9760   213.6770   207.3370 hc         1 UDU       0.043367
    163 H70        214.8320   214.8830   206.7170 hc         1 UDU       0.043367
    164 H71        219.7010   208.1140   209.3990 h4         1 UDU       0.081100
    165 H72        204.0610   219.5350   209.7770 ha         1 UDU       0.116000
    166 H73        213.9430   206.5790   200.9010 hc         1 UDU       0.055200
    167 H74        214.5060   208.0620   201.6440 hc         1 UDU       0.055200
    168 H56        203.8880   219.5140   206.8690 hc         1 UDU       0.057200
    169 H67        203.6490   220.8150   205.7200 hc         1 UDU       0.057200
    170 H75        211.5770   214.9240   201.9950 h1         1 UDU       0.059700
    171 H76        212.1570   213.3190   202.5140 h1         1 UDU       0.059700
    172 H77        207.4880   216.4370   206.4710 h1         1 UDU       0.083700
    173 H79        202.6650   217.4720   209.6620 ha         1 UDU       0.118000
    174 H80        203.6910   215.3140   208.9570 ha         1 UDU       0.116000
    175 H78        202.4760   218.6160   205.1580 h1         1 UDU       0.051700
    176 H88        203.8880   216.7490   204.2220 hc         1 UDU       0.068200
    177 H4         204.1260   217.0340   205.9320 hc         1 UDU       0.068200
    178 O1         208.7730   213.4430   204.6560 o          1 UDU      -0.609100
    179 O8         208.8470   216.4700   204.2290 o          1 UDU      -0.644100
    180 O10        207.0270   218.8930   202.9690 o          1 UDU      -0.633100
    181 O4         215.7900   207.4150   205.8580 o          1 UDU      -0.456000
    182 O2         211.9070   208.8940   206.3940 o          1 UDU      -0.594100
    183 O5         218.7690   207.8500   206.7450 o          1 UDU      -0.604100
    184 O6         214.7450   215.7290   211.7830 oh         1 UDU      -0.653000
    185 O15        204.3570   210.4790   202.7560 o          1 UDU      -0.635100
    186 O16        203.0950   209.7640   204.9680 oh         1 UDU      -0.526100
    187 C30        215.8880   205.1020   202.4550 c3         1 UDU      -0.062700
    188 C51        217.3000   204.6710   202.9320 c3         1 UDU      -0.092600
    189 C55        215.0290   203.8450   202.1600 c3         1 UDU      -0.092600
    190 H87        215.4530   216.2260   212.2470 ho         1 UDU       0.443000
    191 H30        216.0260   205.6340   201.5060 hc         1 UDU       0.056700
@<TRIPOS>BOND
     1     1    11 1   
     2     1    19 1   
     3     1    92 1   
     4     2    43 1   
     5     2    54 1   
     6     2    86 1   
     7     3    24 1   
     8     3    32 2   
     9     3    86 1   
    10     4     5 ar  
    11     4    20 1   
    12     4    34 ar  
    13     5     6 ar  
    14     5    93 1   
    15     6    30 ar  
    16     6    94 1   
    17     7    17 1   
    18     7    19 1   
    19     7    95 1   
    20     7    96 1   
    21     8    30 ar  
    22     8    34 ar  
    23     8    97 1   
    24     9    61 1   
    25     9    66 1   
    26     9    69 1   
    27    10    12 1   
    28    10    40 1   
    29    10    41 1   
    30    10    98 1   
    31    11    41 1   
    32    11    42 2   
    33    12    99 1   
    34    12   100 1   
    35    12   101 1   
    36    13    15 ar  
    37    13    27 ar  
    38    13   102 1   
    39    14    21 1   
    40    14    54 1   
    41    14    67 1   
    42    14   103 1   
    43    15    16 ar  
    44    15   104 1   
    45    16    47 ar  
    46    16   105 1   
    47    17    29 1   
    48    17   106 1   
    49    17   107 1   
    50    18    59 1   
    51    18    86 1   
    52    18   108 1   
    53    18   109 1   
    54    19    53 1   
    55    19   110 1   
    56    20    22 1   
    57    20    25 1   
    58    20   111 1   
    59    21    53 1   
    60    21    85 1   
    61    22    38 2   
    62    22    40 1   
    63    23    57 1   
    64    23    60 1   
    65    24    46 1   
    66    24    73 1   
    67    25    64 1   
    68    25   112 1   
    69    26    41 1   
    70    26    44 1   
    71    26   113 1   
    72    27    45 ar  
    73    28    80 1   
    74    28    83 1   
    75    29    33 1   
    76    29    48 1   
    77    30   114 1   
    78    31    33 2   
    79    31    49 1   
    80    34   115 1   
    81    35    77 1   
    82    35    83 2   
    83    36    89 1   
    84    36   116 1   
    85    37    59 ar  
    86    37    88 ar  
    87    37   117 1   
    88    39    52 1   
    89    39    71 1   
    90    39   118 1   
    91    41   119 1   
    92    43   120 1   
    93    43   121 1   
    94    43   122 1   
    95    44    45 1   
    96    44   185 2   
    97    45    47 ar  
    98    46    64 1   
    99    46    90 1   
   100    46   124 1   
   101    47   186 1   
   102    48    49 2   
   103    48   125 1   
   104    49    82 1   
   105    50    51 2   
   106    50    52 1   
   107    50   126 1   
   108    51    56 1   
   109    51   127 1   
   110    52   182 2   
   111    53   178 2   
   112    54   179 2   
   113    55    58 1   
   114    55    83 1   
   115    55   128 1   
   116    55   129 1   
   117    56    57 1   
   118    56    82 1   
   119    56   130 1   
   120    57   131 1   
   121    57   187 1   
   122    58    68 1   
   123    58    91 1   
   124    58   132 1   
   125    59    70 ar  
   126    60    61 1   
   127    60   181 2   
   128    61    63 1   
   129    61   133 1   
   130    62    72 2   
   131    62    74 1   
   132    62   134 1   
   133    63    65 1   
   134    63   135 1   
   135    63   136 1   
   136    64   180 2   
   137    65    66 1   
   138    65   137 1   
   139    65   138 1   
   140    66   139 1   
   141    66   140 1   
   142    67    78 1   
   143    67   141 1   
   144    67   142 1   
   145    68    76 1   
   146    68   143 1   
   147    68   144 1   
   148    69    77 1   
   149    69   183 2   
   150    70    81 ar  
   151    70   148 1   
   152    71    72 1   
   153    71   149 1   
   154    71   150 1   
   155    72   151 1   
   156    73    84 1   
   157    73   155 1   
   158    73   156 1   
   159    74    75 2   
   160    74    79 1   
   161    75    76 1   
   162    75   157 1   
   163    76   158 1   
   164    76   184 1   
   165    77    80 2   
   166    78    85 1   
   167    78   159 1   
   168    78   160 1   
   169    79   161 1   
   170    79   162 1   
   171    79   163 1   
   172    80   164 1   
   173    81    87 ar  
   174    81   165 1   
   175    82   166 1   
   176    82   167 1   
   177    84    89 1   
   178    84   168 1   
   179    84   169 1   
   180    85   170 1   
   181    85   171 1   
   182    86   172 1   
   183    87    88 ar  
   184    87   173 1   
   185    88   174 1   
   186    89    90 1   
   187    89   175 1   
   188    90   176 1   
   189    90   177 1   
   190   123   186 1   
   191   145   188 1   
   192   146   188 1   
   193   147   188 1   
   194   152   189 1   
   195   153   189 1   
   196   154   189 1   
   197   184   190 1   
   198   187   188 1   
   199   187   189 1   
   200   187   191 1   
@<TRIPOS>SUBSTRUCTURE
     1 UDU         1 TEMP              0 ****  ****    0 ROOT
