@<TRIPOS>MOLECULE
UDV
   49    54     1     0     0
SMALL
abcg2


@<TRIPOS>ATOM
      1 C1          -8.3080    -0.2660   -24.9900 cc         1 UDV       0.405800
      2 C2          -6.7900    -1.5280   -25.8800 cc         1 UDV       0.415800
      3 C3          -9.0550    -1.9620   -26.7000 ca         1 UDV       0.021800
      4 C7          -9.6870    -2.9920   -28.7730 ca         1 UDV      -0.075000
      5 C8          -8.7560    -2.2680   -28.0310 ca         1 UDV      -0.174900
      6 C9          -7.4790    -1.8890   -28.6910 ce         1 UDV       0.532500
      7 C10         -6.2130    -2.4890   -26.8290 cx         1 UDV       0.015900
      8 C11         -6.3190    -3.9650   -26.5500 cx         1 UDV      -0.100900
      9 C12         -4.9990    -3.2600   -26.4470 cx         1 UDV      -0.100900
     10 C13         -7.5510    -1.3670   -30.0780 ca         1 UDV      -0.142900
     11 C14         -8.6170    -0.5740   -30.4960 ca         1 UDV      -0.068000
     12 C15         -8.6500    -0.0470   -31.7780 ca         1 UDV      -0.112500
     13 C16         -7.6120    -0.3300   -32.6500 ca         1 UDV       0.132000
     14 C19        -11.8410    -4.1960   -29.0290 cc         1 UDV      -0.174000
     15 C20        -11.6130    -4.9050   -30.2270 cc         1 UDV       0.260900
     16 C22        -13.1850    -4.4090   -28.7800 cd         1 UDV      -0.149000
     17 CL          -7.6500     0.3090   -34.2570 cl         1 UDV      -0.198000
     18 C17         -6.5420    -1.1230   -32.2590 ca         1 UDV      -0.112500
     19 C18         -6.5140    -1.6300   -30.9720 ca         1 UDV      -0.068000
     20 N3          -6.3200    -2.0080   -28.1770 n2         1 UDV      -0.532900
     21 N1          -6.2040    -0.7630   -25.0140 nd         1 UDV      -0.331000
     22 N           -7.1580     0.0270   -24.4540 nd         1 UDV      -0.359000
     23 N2          -8.1270    -1.2600   -25.9100 na         1 UDV      -0.277800
     24 C           -9.5960     0.4000   -24.6810 c3         1 UDV      -0.123400
     25 C6         -10.8950    -3.4230   -28.2330 ca         1 UDV       0.025000
     26 C5         -11.1650    -3.0970   -26.9010 ca         1 UDV      -0.091000
     27 C4         -10.2580    -2.3810   -26.1460 ca         1 UDV      -0.115000
     28 N5         -13.6520    -5.1780   -29.7720 na         1 UDV       0.138800
     29 N4         -12.7110    -5.4920   -30.6580 nd         1 UDV      -0.518800
     30 H1          -9.4550    -3.2240   -29.8040 ha         1 UDV       0.130000
     31 H2          -6.8140    -4.2780   -25.6400 hc         1 UDV       0.086450
     32 H3          -6.4870    -4.6110   -27.4030 hc         1 UDV       0.086450
     33 H4          -4.2730    -3.4330   -27.2320 hc         1 UDV       0.086450
     34 H5          -4.5770    -3.0970   -25.4640 hc         1 UDV       0.086450
     35 H6          -9.4290    -0.3460   -29.8180 ha         1 UDV       0.130000
     36 H7          -9.4770     0.5780   -32.0880 ha         1 UDV       0.132500
     37 H8         -10.6890    -5.0150   -30.7750 h4         1 UDV       0.042100
     38 H9         -15.0150    -6.7550   -29.9050 h1         1 UDV       0.059700
     39 H10        -15.6170    -5.2800   -29.1350 h1         1 UDV       0.059700
     40 H11        -15.4060    -5.3330   -30.8920 h1         1 UDV       0.059700
     41 H12        -13.8270    -4.0600   -27.9870 h4         1 UDV       0.155000
     42 H13         -5.7400    -1.3440   -32.9500 ha         1 UDV       0.132500
     43 H14         -5.6820    -2.2480   -30.6640 ha         1 UDV       0.130000
     44 H15         -9.3930     1.3490   -24.1900 hc         1 UDV       0.060367
     45 H16        -10.1750     0.5920   -25.5840 hc         1 UDV       0.060367
     46 H17        -10.2120    -0.1970   -24.0080 hc         1 UDV       0.060367
     47 H18        -12.0810    -3.4290   -26.4310 ha         1 UDV       0.118000
     48 H19        -10.4780    -2.1790   -25.1070 ha         1 UDV       0.128000
     49 C21        -14.9990    -5.6680   -29.9400 c3         1 UDV       0.070900
@<TRIPOS>BOND
     1     1    22 2   
     2     1    23 1   
     3     1    24 1   
     4     2     7 1   
     5     2    21 2   
     6     2    23 1   
     7     3     5 ar  
     8     3    23 1   
     9     3    27 ar  
    10     4     5 ar  
    11     4    25 ar  
    12     4    30 1   
    13     5     6 1   
    14     6    10 1   
    15     6    20 2   
    16     7     8 1   
    17     7     9 1   
    18     7    20 1   
    19     8     9 1   
    20     8    31 1   
    21     8    32 1   
    22     9    33 1   
    23     9    34 1   
    24    10    11 ar  
    25    10    19 ar  
    26    11    12 ar  
    27    11    35 1   
    28    12    13 ar  
    29    12    36 1   
    30    13    17 1   
    31    13    18 ar  
    32    14    15 1   
    33    14    16 2   
    34    14    25 1   
    35    15    29 2   
    36    15    37 1   
    37    16    28 1   
    38    16    41 1   
    39    18    19 ar  
    40    18    42 1   
    41    19    43 1   
    42    21    22 1   
    43    24    44 1   
    44    24    45 1   
    45    24    46 1   
    46    25    26 ar  
    47    26    27 ar  
    48    26    47 1   
    49    27    48 1   
    50    28    29 1   
    51    28    49 1   
    52    38    49 1   
    53    39    49 1   
    54    40    49 1   
@<TRIPOS>SUBSTRUCTURE
     1 UDV         1 TEMP              0 ****  ****    0 ROOT
