@<TRIPOS>MOLECULE
UDV
   49    54     1     0     0
SMALL
No Charge or Current Charge


@<TRIPOS>ATOM
      1 C1          -8.2860    -0.1590   -25.3050 cc         1 UDV       0.405800
      2 C2          -6.7790    -1.6160   -26.0460 cc         1 UDV       0.415800
      3 C3          -9.0530    -2.0090   -26.7670 ca         1 UDV       0.021800
      4 C7          -9.6840    -3.1700   -28.8150 ca         1 UDV      -0.075000
      5 C8          -8.7280    -2.4440   -28.0730 ca         1 UDV      -0.174900
      6 C9          -7.4070    -2.1120   -28.7200 ce         1 UDV       0.532500
      7 C10         -6.1980    -2.7480   -26.8210 cx         1 UDV       0.015900
      8 C11         -6.3730    -4.1510   -26.2790 cx         1 UDV      -0.100900
      9 C12         -5.0130    -3.4980   -26.2500 cx         1 UDV      -0.100900
     10 C13         -7.4560    -1.3820   -30.0350 ca         1 UDV      -0.142900
     11 C14         -8.5610    -0.5580   -30.3550 ca         1 UDV      -0.068000
     12 C15         -8.5990     0.1520   -31.5680 ca         1 UDV      -0.112500
     13 C16         -7.5300     0.0600   -32.4700 ca         1 UDV       0.132000
     14 C19        -11.9140    -4.2430   -29.0850 cc         1 UDV      -0.174000
     15 C20        -11.8070    -4.7460   -30.3930 cc         1 UDV       0.260900
     16 C22        -13.1580    -4.5900   -28.6400 cd         1 UDV      -0.149000
     17 Cl          -7.5790     0.9500   -33.9860 cl         1 UDV      -0.198000
     18 C17         -6.4170    -0.7350   -32.1590 ca         1 UDV      -0.112500
     19 C18         -6.3750    -1.4460   -30.9470 ca         1 UDV      -0.068000
     20 N3          -6.2550    -2.5610   -28.2850 n2         1 UDV      -0.532900
     21 N1          -6.1580    -0.6940   -25.3190 nd         1 UDV      -0.331000
     22 N           -7.0970     0.2120   -24.8550 nd         1 UDV      -0.359000
     23 N2          -8.1070    -1.3170   -26.0140 na         1 UDV      -0.277800
     24 C           -9.5680     0.6020   -25.1120 c3         1 UDV      -0.123400
     25 C6         -10.9480    -3.4860   -28.2770 ca         1 UDV       0.025000
     26 C5         -11.2450    -3.0650   -26.9650 ca         1 UDV      -0.091000
     27 C4         -10.3040    -2.3390   -26.2170 ca         1 UDV      -0.115000
     28 N5         -13.7300    -5.2870   -29.7110 na         1 UDV       0.138800
     29 N4         -12.8830    -5.3840   -30.8080 nd         1 UDV      -0.518800
     30 H1          -9.4320    -3.4910   -29.8230 ha         1 UDV       0.130000
     31 H2          -6.9000    -4.2690   -25.3360 hc         1 UDV       0.086450
     32 H3          -6.5350    -4.9550   -26.9930 hc         1 UDV       0.086450
     33 H4          -4.2610    -3.8630   -26.9440 hc         1 UDV       0.086450
     34 H5          -4.6240    -3.1850   -25.2840 hc         1 UDV       0.086450
     35 H6          -9.3960    -0.4550   -29.6640 ha         1 UDV       0.130000
     36 H7          -9.4560     0.7770   -31.8060 ha         1 UDV       0.132500
     37 H8         -10.9630    -4.6660   -31.0650 h4         1 UDV       0.042100
     38 H9         -14.9940    -6.9590   -29.9170 h1         1 UDV       0.059700
     39 H10        -15.5830    -5.7000   -28.7920 h1         1 UDV       0.059700
     40 H11        -15.6540    -5.4230   -30.5570 h1         1 UDV       0.059700
     41 H12        -13.6760    -4.4190   -27.7050 h4         1 UDV       0.155000
     42 H13         -5.5860    -0.7990   -32.8570 ha         1 UDV       0.132500
     43 H14         -5.5000    -2.0550   -30.7280 ha         1 UDV       0.130000
     44 H15         -9.3650     1.6540   -24.8820 hc         1 UDV       0.060367
     45 H16        -10.1850     0.5710   -26.0170 hc         1 UDV       0.060367
     46 H17        -10.1470     0.1810   -24.2820 hc         1 UDV       0.060367
     47 H18        -12.2010    -3.2980   -26.5080 ha         1 UDV       0.118000
     48 H19        -10.5510    -2.0490   -25.1990 ha         1 UDV       0.128000
     49 C21        -15.0740    -5.8790   -29.7460 c3         1 UDV       0.070900
@<TRIPOS>BOND
     1     1    22 2   
     2     1    23 1   
     3     1    24 1   
     4     2     7 1   
     5     2    21 2   
     6     2    23 1   
     7     3     5 ar  
     8     3    23 1   
     9     3    27 ar  
    10     4     5 ar  
    11     4    25 ar  
    12     4    30 1   
    13     5     6 1   
    14     6    10 1   
    15     6    20 2   
    16     7     8 1   
    17     7     9 1   
    18     7    20 1   
    19     8     9 1   
    20     8    31 1   
    21     8    32 1   
    22     9    33 1   
    23     9    34 1   
    24    10    11 ar  
    25    10    19 ar  
    26    11    12 ar  
    27    11    35 1   
    28    12    13 ar  
    29    12    36 1   
    30    13    17 1   
    31    13    18 ar  
    32    14    15 1   
    33    14    16 2   
    34    14    25 1   
    35    15    29 2   
    36    15    37 1   
    37    16    28 1   
    38    16    41 1   
    39    18    19 ar  
    40    18    42 1   
    41    19    43 1   
    42    21    22 1   
    43    24    44 1   
    44    24    45 1   
    45    24    46 1   
    46    25    26 ar  
    47    26    27 ar  
    48    26    47 1   
    49    27    48 1   
    50    28    29 1   
    51    28    49 1   
    52    38    49 1   
    53    39    49 1   
    54    40    49 1   
@<TRIPOS>SUBSTRUCTURE
     1 UDV         1 TEMP              0 ****  ****    0 ROOT
