@<TRIPOS>MOLECULE
UDW
   49    51     1     0     0
SMALL
No Charge or Current Charge


@<TRIPOS>ATOM
      1 C10         10.3410   -16.0450   -11.1250 ca         1 UDW       0.196900
      2 C15         10.3400   -21.6620   -11.8290 c6         1 UDW      -0.089700
      3 C20         10.3870   -19.8990   -14.0210 c6         1 UDW       0.226800
      4 C21          9.4880   -17.1300   -13.4150 ca         1 UDW      -0.373000
      5 C22          6.4080   -17.4230   -15.2840 ca         1 UDW      -0.057000
      6 C24          4.3480   -17.6910   -14.0100 ca         1 UDW      -0.002000
      7 C03          4.5140   -16.4000   -13.4700 ca         1 UDW      -0.267500
      8 C04          5.6310   -15.6220   -13.8420 ca         1 UDW       0.002000
      9 C05          6.5850   -16.1320   -14.7470 ca         1 UDW      -0.132300
     10 C08          9.2660   -15.7840   -13.1170 ca         1 UDW       0.401900
     11 C12         10.1710   -17.9000   -12.4640 ca         1 UDW       0.415900
     12 C14         10.7320   -20.1930   -11.5130 c6         1 UDW       0.234800
     13 C16         10.5290   -22.6040   -10.6080 c3         1 UDW       0.169600
     14 C18         11.1050   -22.1940   -13.0760 c6         1 UDW      -0.074400
     15 C19         11.3710   -21.0890   -14.1320 c6         1 UDW      -0.086400
     16 C23          5.2960   -18.1980   -14.9150 ca         1 UDW      -0.132000
     17 N01          2.2240   -15.0100   -13.2840 n8         1 UDW      -1.005100
     18 N07          8.6050   -14.9290   -13.9780 nu         1 UDW      -0.949100
     19 N09          9.6960   -15.2280   -11.9780 nb         1 UDW      -0.295000
     20 N11         10.5970   -17.3540   -11.3090 nb         1 UDW      -0.286000
     21 N13         10.4350   -19.2740   -12.6640 nh         1 UDW      -0.781300
     22 O25          2.5370   -16.8240   -11.6950 o          1 UDW      -0.539500
     23 O26          3.8720   -14.6460   -11.5330 o          1 UDW      -0.539500
     24 H1          10.6910   -15.6030   -10.1930 h5         1 UDW       0.040100
     25 H2           9.2650   -21.6780   -12.0560 hc         1 UDW       0.075700
     26 H3          10.6640   -19.1630   -14.7900 h1         1 UDW       0.041700
     27 H4           9.3650   -20.2410   -14.2440 h1         1 UDW       0.041700
     28 H5           9.1320   -17.5600   -14.3410 ha         1 UDW       0.127000
     29 H6           7.1330   -17.8280   -15.9870 ha         1 UDW       0.114000
     30 H7           3.4900   -18.3020   -13.7350 ha         1 UDW       0.136000
     31 H8           5.7650   -14.6240   -13.4290 ha         1 UDW       0.150000
     32 H9           8.4040   -15.8370   -15.8790 h1         1 UDW       0.053200
     33 H10          7.4330   -14.3780   -15.6500 h1         1 UDW       0.053200
     34 H11         11.8020   -20.1470   -11.2570 h1         1 UDW       0.070700
     35 H12         10.1720   -19.8710   -10.6220 h1         1 UDW       0.070700
     36 H13         10.2800   -23.6280   -10.9180 h1         1 UDW       0.017200
     37 H14         11.5880   -22.5940   -10.3150 h1         1 UDW       0.017200
     38 H15         10.5260   -23.0110   -13.5300 hc         1 UDW       0.043200
     39 H16         12.0670   -22.6340   -12.7760 hc         1 UDW       0.043200
     40 H17         11.3270   -21.5170   -15.1420 hc         1 UDW       0.049200
     41 H18         12.3940   -20.7080   -14.0070 hc         1 UDW       0.049200
     42 H19          5.1670   -19.1940   -15.3330 ha         1 UDW       0.120000
     43 H20          1.3620   -15.4410   -12.9580 hn         1 UDW       0.473000
     44 H21          2.1800   -14.0920   -12.8490 hn         1 UDW       0.473000
     45 H22          8.5440   -13.9640   -13.6510 hn         1 UDW       0.509000
     46 H23          9.8580   -22.8830    -8.7910 ho         1 UDW       0.443000
     47 O17          9.7070   -22.2200    -9.5010 oh         1 UDW      -0.655000
     48 C06          7.7910   -15.2890   -15.1500 c3         1 UDW       0.287100
     49 S02          3.3080   -15.7460   -12.3120 sy         1 UDW       1.122600
@<TRIPOS>BOND
     1     1    19 ar  
     2     1    20 ar  
     3     1    24 1   
     4     2    12 1   
     5     2    13 1   
     6     2    14 1   
     7     2    25 1   
     8     3    15 1   
     9     3    21 1   
    10     3    26 1   
    11     3    27 1   
    12     4    10 ar  
    13     4    11 ar  
    14     4    28 1   
    15     5     9 ar  
    16     5    16 ar  
    17     5    29 1   
    18     6     7 ar  
    19     6    16 ar  
    20     6    30 1   
    21     7     8 ar  
    22     7    49 1   
    23     8     9 ar  
    24     8    31 1   
    25     9    48 1   
    26    10    18 1   
    27    10    19 ar  
    28    11    20 ar  
    29    11    21 1   
    30    12    21 1   
    31    12    34 1   
    32    12    35 1   
    33    13    36 1   
    34    13    37 1   
    35    13    47 1   
    36    14    15 1   
    37    14    38 1   
    38    14    39 1   
    39    15    40 1   
    40    15    41 1   
    41    16    42 1   
    42    17    43 1   
    43    17    44 1   
    44    17    49 1   
    45    18    45 1   
    46    18    48 1   
    47    22    49 2   
    48    23    49 2   
    49    32    48 1   
    50    33    48 1   
    51    46    47 1   
@<TRIPOS>SUBSTRUCTURE
     1 UDW         1 TEMP              0 ****  ****    0 ROOT
