@<TRIPOS>MOLECULE
UDW
   49    51     1     0     0
SMALL
abcg2


@<TRIPOS>ATOM
      1 C10         10.4510   -15.9400   -11.0900 ca         1 UDW       0.196900
      2 C15          9.8500   -21.1420   -11.4430 c6         1 UDW      -0.089700
      3 C20          9.8160   -19.6680   -13.8720 c6         1 UDW       0.226800
      4 C21          9.4900   -16.9280   -13.3490 ca         1 UDW      -0.373000
      5 C22          6.5730   -16.7560   -16.1050 ca         1 UDW      -0.057000
      6 C24          4.7820   -17.8110   -14.8980 ca         1 UDW      -0.002000
      7 C03          5.1320   -17.0520   -13.7890 ca         1 UDW      -0.267500
      8 C04          6.1820   -16.1490   -13.8220 ca         1 UDW       0.002000
      9 C05          6.9190   -16.0000   -14.9910 ca         1 UDW      -0.132300
     10 C08          9.3400   -15.5840   -13.0160 ca         1 UDW       0.401900
     11 C12         10.1550   -17.7470   -12.4250 ca         1 UDW       0.415900
     12 C14         10.8130   -19.9680   -11.6140 c6         1 UDW       0.234800
     13 C16         10.2860   -22.0750   -10.3280 c3         1 UDW       0.169600
     14 C18          9.7100   -21.9290   -12.7610 c6         1 UDW      -0.074400
     15 C19         10.2180   -21.1290   -13.9580 c6         1 UDW      -0.086400
     16 C23          5.5100   -17.6490   -16.0640 ca         1 UDW      -0.132000
     17 N01          2.7750   -16.6330   -12.6610 n8         1 UDW      -1.005100
     18 N07          8.6760   -14.7110   -13.8060 nu         1 UDW      -0.949100
     19 N09          9.8350   -15.0770   -11.8730 nb         1 UDW      -0.295000
     20 N11         10.6430   -17.2290   -11.2810 nb         1 UDW      -0.286000
     21 N13         10.3260   -19.0680   -12.6470 nh         1 UDW      -0.781300
     22 O25          3.9930   -18.7190   -12.0910 o          1 UDW      -0.539500
     23 O26          4.9340   -16.5750   -11.2200 o          1 UDW      -0.539500
     24 H1          10.8550   -15.5350   -10.1650 h5         1 UDW       0.040100
     25 H2           8.8740   -20.7230   -11.1760 hc         1 UDW       0.075700
     26 H3          10.2110   -19.1290   -14.7390 h1         1 UDW       0.041700
     27 H4           8.7230   -19.5820   -13.9160 h1         1 UDW       0.041700
     28 H5           9.0770   -17.3240   -14.2620 ha         1 UDW       0.127000
     29 H6           7.1500   -16.6570   -17.0170 ha         1 UDW       0.114000
     30 H7           3.9620   -18.5170   -14.8590 ha         1 UDW       0.136000
     31 H8           6.4400   -15.5740   -12.9430 ha         1 UDW       0.150000
     32 H9           8.8370   -15.4570   -15.7540 h1         1 UDW       0.053200
     33 H10          7.7550   -14.1060   -15.5240 h1         1 UDW       0.053200
     34 H11         11.8140   -20.3380   -11.8640 h1         1 UDW       0.070700
     35 H12         10.9020   -19.4080   -10.6890 h1         1 UDW       0.070700
     36 H13          9.6010   -22.9340   -10.3060 h1         1 UDW       0.017200
     37 H14         11.2810   -22.4740   -10.5720 h1         1 UDW       0.017200
     38 H15          8.6630   -22.2000   -12.9130 hc         1 UDW       0.043200
     39 H16         10.2650   -22.8690   -12.7040 hc         1 UDW       0.043200
     40 H17          9.8250   -21.5420   -14.8880 hc         1 UDW       0.049200
     41 H18         11.3060   -21.2000   -14.0290 hc         1 UDW       0.049200
     42 H19          5.2580   -18.2310   -16.9410 ha         1 UDW       0.120000
     43 H20          2.0430   -16.9560   -12.0340 hn         1 UDW       0.473000
     44 H21          2.7980   -15.6180   -12.6820 hn         1 UDW       0.473000
     45 H22          8.6200   -13.7620   -13.4770 hn         1 UDW       0.509000
     46 H23         10.6080   -21.9850    -8.4180 ho         1 UDW       0.443000
     47 O17         10.2890   -21.3860    -9.0980 oh         1 UDW      -0.655000
     48 C06          8.0880   -15.0410   -15.0710 c3         1 UDW       0.287100
     49 S02          4.2400   -17.2970   -12.2770 sy         1 UDW       1.122600
@<TRIPOS>BOND
     1     1    19 ar  
     2     1    20 ar  
     3     1    24 1   
     4     2    12 1   
     5     2    13 1   
     6     2    14 1   
     7     2    25 1   
     8     3    15 1   
     9     3    21 1   
    10     3    26 1   
    11     3    27 1   
    12     4    10 ar  
    13     4    11 ar  
    14     4    28 1   
    15     5     9 ar  
    16     5    16 ar  
    17     5    29 1   
    18     6     7 ar  
    19     6    16 ar  
    20     6    30 1   
    21     7     8 ar  
    22     7    49 1   
    23     8     9 ar  
    24     8    31 1   
    25     9    48 1   
    26    10    18 1   
    27    10    19 ar  
    28    11    20 ar  
    29    11    21 1   
    30    12    21 1   
    31    12    34 1   
    32    12    35 1   
    33    13    36 1   
    34    13    37 1   
    35    13    47 1   
    36    14    15 1   
    37    14    38 1   
    38    14    39 1   
    39    15    40 1   
    40    15    41 1   
    41    16    42 1   
    42    17    43 1   
    43    17    44 1   
    44    17    49 1   
    45    18    45 1   
    46    18    48 1   
    47    22    49 2   
    48    23    49 2   
    49    32    48 1   
    50    33    48 1   
    51    46    47 1   
@<TRIPOS>SUBSTRUCTURE
     1 UDW         1 TEMP              0 ****  ****    0 ROOT
