@<TRIPOS>MOLECULE
UDX
   54    56     1     0     0
SMALL
No Charge or Current Charge


@<TRIPOS>ATOM
      1 C1          -0.6050    -0.3570     5.2650 c6         1 UDX       0.408300
      2 C2           0.6020     0.5070     4.6890 c6         1 UDX       0.158300
      3 O2           0.2550     1.8580     4.2810 oh         1 UDX      -0.687000
      4 C3           1.3150    -0.2990     3.5480 c6         1 UDX       0.175300
      5 O3           2.4980     0.3670     3.0550 oh         1 UDX      -0.670000
      6 C4           1.7370    -1.7060     4.0720 c6         1 UDX       0.093300
      7 O4           2.3450    -2.4750     3.0130 oh         1 UDX      -0.728000
      8 C5           0.5090    -2.4400     4.6810 c6         1 UDX       0.133600
      9 O5          -0.0990    -1.6320     5.7190 os         1 UDX      -0.480000
     10 O1B         -2.3090     1.7960     4.3560 o          1 UDX      -0.845000
     11 O2B         -3.9740     0.1070     3.5780 o          1 UDX      -0.845000
     12 O3B         -1.7030    -0.6470     4.3830 os         1 UDX      -0.578400
     13 O3A         -1.7570     0.4270     2.2860 os         1 UDX      -0.687800
     14 PA          -2.5390     1.0570     1.0750 p5         1 UDX       1.454800
     15 O1A         -3.1470     2.3890     1.3650 o          1 UDX      -0.851500
     16 O2A         -3.5040     0.1080     0.4480 o          1 UDX      -0.851500
     17 O5D         -1.2480     1.2690     0.1320 os         1 UDX      -0.554400
     18 C5D         -0.6150     0.1610    -0.5310 c3         1 UDX       0.222600
     19 C4D         -1.3250    -0.1670    -1.8800 c5         1 UDX       0.160300
     20 O4D         -1.0760     0.9130    -2.8300 os         1 UDX      -0.400000
     21 C3D         -0.7730    -1.4770    -2.5580 c5         1 UDX       0.102300
     22 O3D         -1.7470    -2.1550    -3.3600 oh         1 UDX      -0.715000
     23 C2D          0.3400    -0.9050    -3.4780 c5         1 UDX       0.069300
     24 O2D          0.7070    -1.8530    -4.5070 oh         1 UDX      -0.729000
     25 C1D         -0.4230     0.3600    -3.9860 c5         1 UDX       0.350700
     26 N1           0.5580     1.2760    -4.6310 n          1 UDX      -0.308000
     27 C6           0.5970     1.3290    -6.0250 cc         1 UDX       0.031600
     28 C7           1.3900     2.1080    -3.8460 c          1 UDX       0.613000
     29 O6           1.4430     2.0780    -2.6290 o          1 UDX      -0.491000
     30 N3           2.1980     2.9600    -4.5360 ns         1 UDX      -0.470500
     31 C8           2.3180     3.1090    -5.8780 c          1 UDX       0.598200
     32 O7           3.0830     3.9110    -6.3820 o          1 UDX      -0.565000
     33 C9           1.4490     2.2150    -6.6410 cd         1 UDX      -0.417200
     34 H1          -1.0030     0.1830     6.1390 h2         1 UDX       0.076700
     35 H2'1         1.3280     0.5930     5.5110 h1         1 UDX       0.002700
     36 HO'2        -0.7470     1.9320     4.3270 ho         1 UDX       0.497000
     37 H3'1         0.5960    -0.4460     2.7280 h1         1 UDX       0.095700
     38 HO'3         3.0200    -0.3550     2.6390 ho         1 UDX       0.433000
     39 H4'1         2.4700    -1.5630     4.8800 h1         1 UDX       0.018700
     40 HO'4         2.7320    -3.2850     3.4230 ho         1 UDX       0.487000
     41 H5'1        -0.2320    -2.6600     3.9000 h1         1 UDX       0.067200
     42 H5'2         0.8280    -3.3950     5.1230 h1         1 UDX       0.067200
     43 H5A1         0.4420     0.3880    -0.7210 h1         1 UDX       0.020200
     44 H5A2        -0.6450    -0.7320     0.1080 h1         1 UDX       0.020200
     45 H4A1        -2.4040    -0.2570    -1.7160 h1         1 UDX       0.098700
     46 H3A1        -0.3530    -2.1680    -1.8120 h1         1 UDX       0.059700
     47 HOA3        -1.2120    -2.5080    -4.1150 ho         1 UDX       0.497000
     48 H2A1         1.2170    -0.6160    -2.8790 h1         1 UDX       0.091700
     49 HOC2         1.5180    -1.5100    -4.9560 ho         1 UDX       0.504000
     50 H1'1        -1.1770     0.0890    -4.7360 h2         1 UDX       0.051700
     51 H61         -0.0810     0.6390    -6.5230 h4         1 UDX       0.195000
     52 HN3          2.7900     3.5520    -3.9760 hn         1 UDX       0.344500
     53 H51          1.5190     2.3020    -7.7190 ha         1 UDX       0.204000
     54 PB          -2.5390     0.5050     3.6450 p5         1 UDX       1.463800
@<TRIPOS>BOND
     1     1     2 1   
     2     1     9 1   
     3     1    12 1   
     4     1    34 1   
     5     2     3 1   
     6     2     4 1   
     7     2    35 1   
     8     3    36 1   
     9     4     5 1   
    10     4     6 1   
    11     4    37 1   
    12     5    38 1   
    13     6     7 1   
    14     6     8 1   
    15     6    39 1   
    16     7    40 1   
    17     8     9 1   
    18     8    41 1   
    19     8    42 1   
    20    10    54 1   
    21    11    54 1   
    22    12    54 1   
    23    13    14 1   
    24    13    54 1   
    25    14    15 1   
    26    14    16 1   
    27    14    17 1   
    28    17    18 1   
    29    18    19 1   
    30    18    43 1   
    31    18    44 1   
    32    19    20 1   
    33    19    21 1   
    34    19    45 1   
    35    20    25 1   
    36    21    22 1   
    37    21    23 1   
    38    21    46 1   
    39    22    47 1   
    40    23    24 1   
    41    23    25 1   
    42    23    48 1   
    43    24    49 1   
    44    25    26 1   
    45    25    50 1   
    46    26    27 1   
    47    26    28 1   
    48    27    33 2   
    49    27    51 1   
    50    28    29 2   
    51    28    30 1   
    52    30    31 1   
    53    30    52 1   
    54    31    32 2   
    55    31    33 1   
    56    33    53 1   
@<TRIPOS>SUBSTRUCTURE
     1 UDX         1 TEMP              0 ****  ****    0 ROOT
