@<TRIPOS>MOLECULE
UDX
   54    56     1     0     0
SMALL
abcg2


@<TRIPOS>ATOM
      1 C1          -0.1750    -0.4190     4.9510 c6         1 UDX       0.408300
      2 C2           0.1770     0.9870     5.4570 c6         1 UDX       0.158300
      3 O2          -0.6760     1.9640     4.9250 oh         1 UDX      -0.687000
      4 C3           1.6110     1.3390     5.0980 c6         1 UDX       0.175300
      5 O3           1.9200     2.5840     5.6760 oh         1 UDX      -0.670000
      6 C4           2.5310     0.2400     5.6160 c6         1 UDX       0.093300
      7 O4           3.8400     0.5350     5.1810 oh         1 UDX      -0.728000
      8 C5           2.0760    -1.1220     5.1050 c6         1 UDX       0.133600
      9 O5           0.7240    -1.3670     5.4510 os         1 UDX      -0.480000
     10 O1B         -1.7290    -2.4540     3.4630 o          1 UDX      -0.845000
     11 O2B          0.5670    -2.4410     2.2220 o          1 UDX      -0.845000
     12 O3B         -0.1910    -0.3880     3.5580 os         1 UDX      -0.578400
     13 O3A         -1.3080    -0.8590     1.4800 os         1 UDX      -0.687800
     14 PA          -2.3920    -1.4660     0.4080 p5         1 UDX       1.454800
     15 O1A         -3.7680    -1.0080     0.7780 o          1 UDX      -0.851500
     16 O2A         -2.1270    -2.9130     0.1390 o          1 UDX      -0.851500
     17 O5D         -1.8350    -0.5500    -0.8400 os         1 UDX      -0.554400
     18 C5D         -2.4010    -0.7790    -2.1110 c3         1 UDX       0.222600
     19 C4D         -2.3670     0.5120    -2.9010 c5         1 UDX       0.160300
     20 O4D         -1.0410     1.0460    -2.9690 os         1 UDX      -0.400000
     21 C3D         -2.8220     0.3260    -4.3440 c5         1 UDX       0.102300
     22 O3D         -3.4310     1.5120    -4.7850 oh         1 UDX      -0.715000
     23 C2D         -1.4880     0.0950    -5.0660 c5         1 UDX       0.069300
     24 O2D         -1.4910     0.4610    -6.4170 oh         1 UDX      -0.729000
     25 C1D         -0.5840     1.0480    -4.2850 c5         1 UDX       0.350700
     26 N1           0.8450     0.7680    -4.3290 n          1 UDX      -0.308000
     27 C6           1.6920     1.7370    -4.7920 cc         1 UDX       0.031600
     28 C7           1.3440    -0.4340    -3.8580 c          1 UDX       0.613000
     29 O6           0.6460    -1.3290    -3.4360 o          1 UDX      -0.491000
     30 N3           2.7100    -0.5460    -3.9100 ns         1 UDX      -0.470500
     31 C8           3.6320     0.3790    -4.3750 c          1 UDX       0.598200
     32 O7           4.8220     0.1280    -4.3580 o          1 UDX      -0.565000
     33 C9           3.0260     1.6000    -4.8430 cd         1 UDX      -0.417200
     34 H1          -1.1530    -0.7180     5.3460 h2         1 UDX       0.076700
     35 H2'1         0.1020     0.9500     6.5550 h1         1 UDX       0.002700
     36 HO'2        -1.5650     1.8090     5.2590 ho         1 UDX       0.497000
     37 H3'1         1.7080     1.3860     4.0020 h1         1 UDX       0.095700
     38 HO'3         2.8410     2.7780     5.4740 ho         1 UDX       0.433000
     39 H4'1         2.4730     0.2430     6.7130 h1         1 UDX       0.018700
     40 HO'4         4.4650     0.0830     5.7550 ho         1 UDX       0.487000
     41 H5'1         2.2300    -1.1970     4.0240 h1         1 UDX       0.067200
     42 H5'2         2.6600    -1.9150     5.5760 h1         1 UDX       0.067200
     43 H5A1        -1.8600    -1.5730    -2.6340 h1         1 UDX       0.020200
     44 H5A2        -3.4520    -1.0850    -2.0450 h1         1 UDX       0.020200
     45 H4A1        -3.0020     1.2470    -2.3950 h1         1 UDX       0.098700
     46 H3A1        -3.4950    -0.5350    -4.4500 h1         1 UDX       0.059700
     47 HOA3        -3.3840     1.5250    -5.7490 ho         1 UDX       0.497000
     48 H2A1        -1.1800    -0.9430    -4.9280 h1         1 UDX       0.091700
     49 HOC2        -1.7560    -0.3000    -6.9430 ho         1 UDX       0.504000
     50 H1'1        -0.6830     2.0460    -4.7280 h2         1 UDX       0.051700
     51 H61          1.2150     2.6470    -5.1280 h4         1 UDX       0.195000
     52 HN3          3.0780    -1.4230    -3.5640 hn         1 UDX       0.344500
     53 H51          3.6450     2.3980    -5.2220 ha         1 UDX       0.204000
     54 PB          -0.6560    -1.7340     2.7100 p5         1 UDX       1.463800
@<TRIPOS>BOND
     1     1     2 1   
     2     1     9 1   
     3     1    12 1   
     4     1    34 1   
     5     2     3 1   
     6     2     4 1   
     7     2    35 1   
     8     3    36 1   
     9     4     5 1   
    10     4     6 1   
    11     4    37 1   
    12     5    38 1   
    13     6     7 1   
    14     6     8 1   
    15     6    39 1   
    16     7    40 1   
    17     8     9 1   
    18     8    41 1   
    19     8    42 1   
    20    10    54 1   
    21    11    54 1   
    22    12    54 1   
    23    13    14 1   
    24    13    54 1   
    25    14    15 1   
    26    14    16 1   
    27    14    17 1   
    28    17    18 1   
    29    18    19 1   
    30    18    43 1   
    31    18    44 1   
    32    19    20 1   
    33    19    21 1   
    34    19    45 1   
    35    20    25 1   
    36    21    22 1   
    37    21    23 1   
    38    21    46 1   
    39    22    47 1   
    40    23    24 1   
    41    23    25 1   
    42    23    48 1   
    43    24    49 1   
    44    25    26 1   
    45    25    50 1   
    46    26    27 1   
    47    26    28 1   
    48    27    33 2   
    49    27    51 1   
    50    28    29 2   
    51    28    30 1   
    52    30    31 1   
    53    30    52 1   
    54    31    32 2   
    55    31    33 1   
    56    33    53 1   
@<TRIPOS>SUBSTRUCTURE
     1 UDX         1 TEMP              0 ****  ****    0 ROOT
