@<TRIPOS>MOLECULE
UDY
   31    34     1     0     0
SMALL
abcg2


@<TRIPOS>ATOM
      1 C10        -13.4850   -28.5590     1.7740 cc         1 UDY       0.660300
      2 N12        -12.4740   -27.7050     1.3960 nu         1 UDY      -0.836100
      3 C13        -11.3570   -27.4110     2.1180 cc         1 UDY       0.637100
      4 C15         -9.8940   -27.4080     3.7710 ca         1 UDY       0.122400
      5 C17         -8.0890   -27.1900     5.3420 ca         1 UDY      -0.135000
      6 C20         -9.1990   -26.5560     2.8850 ca         1 UDY      -0.167000
      7 C01        -18.7430   -31.1400     0.7210 ca         1 UDY      -0.075000
      8 C02        -18.7320   -30.9640    -0.6590 ca         1 UDY      -0.162000
      9 C03        -17.6190   -30.3630    -1.2300 ca         1 UDY       0.334900
     10 N04        -16.5600   -29.9520    -0.5310 nb         1 UDY      -0.635000
     11 C05        -16.5680   -30.1260     0.7990 ca         1 UDY       0.319000
     12 C06        -17.6530   -30.7130     1.4600 ca         1 UDY      -0.150000
     13 C07        -15.3770   -29.6830     1.5490 cd         1 UDY       0.269000
     14 C08        -15.0480   -30.0810     2.8140 cc         1 UDY      -0.299000
     15 S09        -13.5640   -29.3620     3.3210 ss         1 UDY       0.056600
     16 N11        -14.4760   -28.8140     0.9700 nd         1 UDY      -0.671000
     17 N14        -11.1130   -27.8710     3.3020 nd         1 UDY      -0.616100
     18 C16         -9.3280   -27.7180     5.0080 ca         1 UDY      -0.045000
     19 C18         -7.4380   -26.3600     4.4370 ca         1 UDY       0.163000
     20 C19         -7.9580   -26.0180     3.2040 ca         1 UDY      -0.102000
     21 S21        -10.1300   -26.3420     1.4240 ss         1 UDY       0.013800
     22 F22         -6.2220   -25.8610     4.7830 f          1 UDY      -0.180000
     23 H1         -12.5750   -27.3100     0.4710 hn         1 UDY       0.532000
     24 H2          -7.6220   -27.4140     6.2910 ha         1 UDY       0.138000
     25 H4         -19.5620   -31.2800    -1.2760 ha         1 UDY       0.124000
     26 H5         -17.5740   -30.2040    -2.3030 h4         1 UDY       0.021100
     27 H6         -17.6460   -30.8190     2.5360 ha         1 UDY       0.122000
     28 H7         -15.5680   -30.7650     3.4630 h4         1 UDY       0.159000
     29 H8          -9.8550   -28.3680     5.6940 ha         1 UDY       0.138000
     30 H9          -7.4130   -25.3670     2.5330 ha         1 UDY       0.144000
     31 H3         -19.5930   -31.5950     1.2140 ha         1 UDY       0.119000
@<TRIPOS>BOND
     1     1     2 1   
     2     1    15 1   
     3     1    16 2   
     4     2     3 1   
     5     2    23 1   
     6     3    17 2   
     7     3    21 1   
     8     4     6 ar  
     9     4    17 1   
    10     4    18 ar  
    11     5    18 ar  
    12     5    19 ar  
    13     5    24 1   
    14     6    20 ar  
    15     6    21 1   
    16     7     8 ar  
    17     7    12 ar  
    18     7    31 1   
    19     8     9 ar  
    20     8    25 1   
    21     9    10 ar  
    22     9    26 1   
    23    10    11 ar  
    24    11    12 ar  
    25    11    13 1   
    26    12    27 1   
    27    13    14 2   
    28    13    16 1   
    29    14    15 1   
    30    14    28 1   
    31    18    29 1   
    32    19    20 ar  
    33    19    22 1   
    34    20    30 1   
@<TRIPOS>SUBSTRUCTURE
     1 UDY         1 TEMP              0 ****  ****    0 ROOT
