@<TRIPOS>MOLECULE
UDY
   31    34     1     0     0
SMALL
No Charge or Current Charge


@<TRIPOS>ATOM
      1 C10        -13.4500   -28.7890     1.9800 cc         1 UDY       0.660300
      2 N12        -12.4140   -28.0090     1.5910 nu         1 UDY      -0.836100
      3 C13        -11.2730   -27.5890     2.2050 cc         1 UDY       0.637100
      4 C15         -9.8030   -27.3970     3.8200 ca         1 UDY       0.122400
      5 C17         -7.9670   -26.9530     5.3520 ca         1 UDY      -0.135000
      6 C20         -9.1770   -26.6210     2.8640 ca         1 UDY      -0.167000
      7 C01        -18.8270   -31.1440     0.5780 ca         1 UDY      -0.075000
      8 C02        -18.8100   -30.8030    -0.7820 ca         1 UDY      -0.162000
      9 C03        -17.6870   -30.1460    -1.3050 ca         1 UDY       0.334900
     10 N04        -16.6100   -29.8210    -0.5560 nb         1 UDY      -0.635000
     11 C05        -16.6090   -30.1410     0.7710 ca         1 UDY       0.319000
     12 C06        -17.7100   -30.8080     1.3600 ca         1 UDY      -0.150000
     13 C07        -15.3980   -29.7840     1.5850 cd         1 UDY       0.269000
     14 C08        -15.1860   -30.1940     2.8900 cc         1 UDY      -0.299000
     15 S09        -13.6870   -29.5770     3.5230 ss         1 UDY       0.056600
     16 N11        -14.3850   -28.9630     1.0770 nd         1 UDY      -0.671000
     17 N14        -11.0170   -27.9660     3.4560 nd         1 UDY      -0.616100
     18 C16         -9.2050   -27.5740     5.0800 ca         1 UDY      -0.045000
     19 C18         -7.3420   -26.1640     4.3660 ca         1 UDY       0.163000
     20 C19         -7.9450   -25.9910     3.1070 ca         1 UDY      -0.102000
     21 S21        -10.0990   -26.5400     1.3740 ss         1 UDY       0.013800
     22 F22         -6.1580   -25.5720     4.6310 f          1 UDY      -0.180000
     23 H1         -12.5330   -27.6800     0.6430 hn         1 UDY       0.532000
     24 H2          -7.4940   -27.0810     6.3220 ha         1 UDY       0.138000
     25 H4         -19.6510   -31.0430    -1.4270 ha         1 UDY       0.124000
     26 H5         -17.6460   -29.8700    -2.3590 h4         1 UDY       0.021100
     27 H6         -17.7080   -31.0600     2.4160 ha         1 UDY       0.122000
     28 H7         -15.8010   -30.8200     3.5210 h4         1 UDY       0.159000
     29 H8          -9.6940   -28.1840     5.8350 ha         1 UDY       0.138000
     30 H9          -7.4640   -25.3830     2.3440 ha         1 UDY       0.144000
     31 H3         -19.6830   -31.6540     1.0160 ha         1 UDY       0.119000
@<TRIPOS>BOND
     1     1     2 1   
     2     1    15 1   
     3     1    16 2   
     4     2     3 1   
     5     2    23 1   
     6     3    17 2   
     7     3    21 1   
     8     4     6 ar  
     9     4    17 1   
    10     4    18 ar  
    11     5    18 ar  
    12     5    19 ar  
    13     5    24 1   
    14     6    20 ar  
    15     6    21 1   
    16     7     8 ar  
    17     7    12 ar  
    18     7    31 1   
    19     8     9 ar  
    20     8    25 1   
    21     9    10 ar  
    22     9    26 1   
    23    10    11 ar  
    24    11    12 ar  
    25    11    13 1   
    26    12    27 1   
    27    13    14 2   
    28    13    16 1   
    29    14    15 1   
    30    14    28 1   
    31    18    29 1   
    32    19    20 ar  
    33    19    22 1   
    34    20    30 1   
@<TRIPOS>SUBSTRUCTURE
     1 UDY         1 TEMP              0 ****  ****    0 ROOT
