@<TRIPOS>MOLECULE
UE0
   37    38     1     0     0
SMALL
abcg2


@<TRIPOS>ATOM
      1 C16          0.8330     8.7070   -14.8070 ca         1 UE0      -0.120000
      2 C17          0.6560     7.9610   -15.9680 ca         1 UE0      -0.118300
      3 C20         -0.5040     7.0210   -16.1240 c3         1 UE0      -0.029800
      4 C15          1.9170     9.5610   -14.6520 ca         1 UE0      -0.103500
      5 C14          2.8710     9.7220   -15.6560 ca         1 UE0      -0.004300
      6 C9           0.8820    14.1380   -14.8960 c3         1 UE0      -0.177100
      7 C8           1.8130    13.1090   -14.2910 c          1 UE0       0.602100
      8 C4           3.2470    13.2960   -16.3060 c6         1 UE0       0.108000
      9 C5           3.8440    11.7670   -14.5070 c6         1 UE0       0.112000
     10 C6           5.1950     9.6520   -14.8640 c          1 UE0       0.733000
     11 C3           3.5730    12.2200   -17.3320 c6         1 UE0      -0.095400
     12 C2           4.5800    11.2170   -16.7890 c6         1 UE0      -0.048400
     13 C1           4.1010    10.5990   -15.4680 c6         1 UE0      -0.162700
     14 N7           2.8670    12.7070   -15.0350 n          1 UE0      -0.400800
     15 O10          1.5930    12.6700   -13.1660 o          1 UE0      -0.626100
     16 O11          5.2940     9.6390   -13.6220 o          1 UE0      -0.711500
     17 O13          5.8440     8.9690   -15.6750 o          1 UE0      -0.711500
     18 C18          1.6100     8.1100   -16.9700 ca         1 UE0      -0.120000
     19 C19          2.6930     8.9630   -16.8140 ca         1 UE0      -0.103500
     20 H1           0.1100     8.6220   -14.0030 ha         1 UE0       0.089500
     21 H2          -0.2790     6.0430   -15.6930 hc         1 UE0       0.024033
     22 H3          -1.3950     7.3960   -15.6190 hc         1 UE0       0.024033
     23 H4          -0.7530     6.8620   -17.1730 hc         1 UE0       0.024033
     24 H5           1.9890    10.1190   -13.7290 ha         1 UE0       0.121000
     25 H6           0.0730    14.3310   -14.1980 hc         1 UE0       0.047700
     26 H7           1.3950    15.0800   -15.0960 hc         1 UE0       0.047700
     27 H8           0.4490    13.7970   -15.8370 hc         1 UE0       0.047700
     28 H9           4.1280    13.9330   -16.1530 h1         1 UE0       0.024200
     29 H10          2.4550    13.9360   -16.6840 h1         1 UE0       0.024200
     30 H11          3.5260    11.4310   -13.5280 h1         1 UE0       0.066700
     31 H12          4.7910    12.3000   -14.3590 h1         1 UE0       0.066700
     32 H13          3.9640    12.7060   -18.2290 hc         1 UE0       0.032700
     33 H14          2.6520    11.7100   -17.6260 hc         1 UE0       0.032700
     34 H15          4.7980    10.4550   -17.5350 hc         1 UE0       0.047200
     35 H16          5.5310    11.7290   -16.6020 hc         1 UE0       0.047200
     36 H18          1.5080     7.5500   -17.8930 ha         1 UE0       0.089500
     37 H19          3.4000     9.0390   -17.6290 ha         1 UE0       0.121000
@<TRIPOS>BOND
     1     1     2 ar  
     2     1     4 ar  
     3     1    20 1   
     4     2     3 1   
     5     2    18 ar  
     6     3    21 1   
     7     3    22 1   
     8     3    23 1   
     9     4     5 ar  
    10     4    24 1   
    11     5    13 1   
    12     5    19 ar  
    13     6     7 1   
    14     6    25 1   
    15     6    26 1   
    16     6    27 1   
    17     7    14 1   
    18     7    15 2   
    19     8    11 1   
    20     8    14 1   
    21     8    28 1   
    22     8    29 1   
    23     9    13 1   
    24     9    14 1   
    25     9    30 1   
    26     9    31 1   
    27    10    13 1   
    28    10    16 1   
    29    10    17 1   
    30    11    12 1   
    31    11    32 1   
    32    11    33 1   
    33    12    13 1   
    34    12    34 1   
    35    12    35 1   
    36    18    19 ar  
    37    18    36 1   
    38    19    37 1   
@<TRIPOS>SUBSTRUCTURE
     1 UE0         1 TEMP              0 ****  ****    0 ROOT
