@<TRIPOS>MOLECULE
UE0
   37    38     1     0     0
SMALL
No Charge or Current Charge


@<TRIPOS>ATOM
      1 C16          0.6020     8.7800   -15.1830 ca         1 UE0      -0.120000
      2 C17          0.7190     7.7710   -16.1530 ca         1 UE0      -0.118300
      3 C20         -0.4280     6.8010   -16.3980 c3         1 UE0      -0.029800
      4 C15          1.6610     9.6750   -14.9520 ca         1 UE0      -0.103500
      5 C14          2.8650     9.5840   -15.6920 ca         1 UE0      -0.004300
      6 C9           1.1130    14.6180   -14.4380 c3         1 UE0      -0.177100
      7 C8           2.1360    13.5750   -13.9710 c          1 UE0       0.602100
      8 C4           2.9350    13.2290   -16.3360 c6         1 UE0       0.108000
      9 C5           3.7630    11.7320   -14.4800 c6         1 UE0       0.112000
     10 C6           5.2530     9.7520   -14.8740 c          1 UE0       0.733000
     11 C3           3.3370    12.1380   -17.3480 c6         1 UE0      -0.095400
     12 C2           4.4800    11.2580   -16.8110 c6         1 UE0      -0.048400
     13 C1           4.0610    10.5620   -15.4760 c6         1 UE0      -0.162700
     14 N7           2.7580    12.7460   -14.9350 n          1 UE0      -0.400800
     15 O10          2.3540    13.4290   -12.7750 o          1 UE0      -0.626100
     16 O11          5.1070     9.3330   -13.7330 o          1 UE0      -0.711500
     17 O13          6.0000     9.1780   -15.6550 o          1 UE0      -0.711500
     18 C18          1.9110     7.6630   -16.8870 ca         1 UE0      -0.120000
     19 C19          2.9700     8.5570   -16.6580 ca         1 UE0      -0.103500
     20 H1          -0.3130     8.8720   -14.6020 ha         1 UE0       0.089500
     21 H2          -0.3410     5.9230   -15.7480 hc         1 UE0       0.024033
     22 H3          -1.3980     7.2710   -16.1990 hc         1 UE0       0.024033
     23 H4          -0.4390     6.4500   -17.4370 hc         1 UE0       0.024033
     24 H5           1.5210    10.4360   -14.1910 ha         1 UE0       0.121000
     25 H6           0.6040    15.1110   -13.6020 hc         1 UE0       0.047700
     26 H7           1.6140    15.3530   -15.0770 hc         1 UE0       0.047700
     27 H8           0.4000    14.1460   -15.1220 hc         1 UE0       0.047700
     28 H9           3.7090    14.0090   -16.3290 h1         1 UE0       0.024200
     29 H10          2.0090    13.6940   -16.6990 h1         1 UE0       0.024200
     30 H11          3.4440    11.3070   -13.5180 h1         1 UE0       0.066700
     31 H12          4.7030    12.2650   -14.2750 h1         1 UE0       0.066700
     32 H13          3.6390    12.6090   -18.2930 hc         1 UE0       0.032700
     33 H14          2.4630    11.5160   -17.5820 hc         1 UE0       0.032700
     34 H15          4.7590    10.5220   -17.5770 hc         1 UE0       0.047200
     35 H16          5.3740    11.8770   -16.6500 hc         1 UE0       0.047200
     36 H18          2.0220     6.8820   -17.6360 ha         1 UE0       0.089500
     37 H19          3.8820     8.4420   -17.2370 ha         1 UE0       0.121000
@<TRIPOS>BOND
     1     1     2 ar  
     2     1     4 ar  
     3     1    20 1   
     4     2     3 1   
     5     2    18 ar  
     6     3    21 1   
     7     3    22 1   
     8     3    23 1   
     9     4     5 ar  
    10     4    24 1   
    11     5    13 1   
    12     5    19 ar  
    13     6     7 1   
    14     6    25 1   
    15     6    26 1   
    16     6    27 1   
    17     7    14 1   
    18     7    15 2   
    19     8    11 1   
    20     8    14 1   
    21     8    28 1   
    22     8    29 1   
    23     9    13 1   
    24     9    14 1   
    25     9    30 1   
    26     9    31 1   
    27    10    13 1   
    28    10    16 1   
    29    10    17 1   
    30    11    12 1   
    31    11    32 1   
    32    11    33 1   
    33    12    13 1   
    34    12    34 1   
    35    12    35 1   
    36    18    19 ar  
    37    18    36 1   
    38    19    37 1   
@<TRIPOS>SUBSTRUCTURE
     1 UE0         1 TEMP              0 ****  ****    0 ROOT
