@<TRIPOS>MOLECULE
UE1
   75    77     1     0     0
SMALL
No Charge or Current Charge


@<TRIPOS>ATOM
      1 N1          -2.0910    -1.6820     0.6530 n          1 UE1      -0.234200
      2 C2          -1.4460    -1.1660    -0.4420 c          1 UE1       0.589000
      3 N3          -2.0940     0.0320    -0.6460 n          1 UE1      -0.274300
      4 C4          -3.0860     0.1840     0.3390 cc         1 UE1       0.371900
      5 N5          -3.1160    -0.8690     1.1710 nd         1 UE1      -0.487300
      6 N6           2.7280    -2.8000     0.7080 nc         1 UE1      -0.790000
      7 C7           3.3570    -3.9300     0.5360 cd         1 UE1       0.721300
      8 S8           4.3460    -4.1270    -0.8910 ss         1 UE1      -0.099400
      9 C9           3.8650    -2.4920    -1.3020 cd         1 UE1      -0.245000
     10 C10          2.4360     0.3020     3.3610 c3         1 UE1      -0.053300
     11 C11          3.5000     1.1560     4.0880 c          1 UE1       0.567900
     12 N12          1.5220    -2.0060     3.2750 ns         1 UE1      -0.499900
     13 C13          2.1530    -1.0070     4.1390 c3         1 UE1       0.095000
     14 O14          4.6110     1.4070     3.6300 o          1 UE1      -0.492100
     15 N15          2.8200     0.0220     1.9470 ns         1 UE1      -0.484900
     16 C16          1.9290     0.0180     0.8810 c          1 UE1       0.544800
     17 O17          0.8150     0.5220     0.9980 o          1 UE1      -0.607100
     18 C18          2.4520    -0.5880    -0.4040 ce         1 UE1       0.211300
     19 N19          2.7250     0.1640    -1.4370 n2         1 UE1      -0.250700
     20 O20          2.0010     1.3820    -1.5270 os         1 UE1      -0.255000
     21 C21          2.3560     2.1870    -2.6970 c3         1 UE1       0.029000
     22 C22          1.4420     3.4740    -2.7630 c          1 UE1       0.732000
     23 C23          3.8470     2.6160    -2.5510 c3         1 UE1      -0.087600
     24 C24          2.1280     1.3270    -3.9780 c3         1 UE1      -0.087600
     25 O25          0.5640     3.6310    -1.9230 o          1 UE1      -0.706500
     26 O26          1.6400     4.2850    -3.6600 o          1 UE1      -0.706500
     27 C27          3.0340    -1.9460    -0.3440 cc         1 UE1       0.331700
     28 C29          0.1780    -2.1540     3.1020 c          1 UE1       0.681100
     29 O30         -0.6570    -1.6640     3.8370 o          1 UE1      -0.583100
     30 N31         -0.0900    -2.9030     2.0200 ns         1 UE1      -0.635300
     31 S32         -1.5830    -3.2220     1.3610 s6         1 UE1       1.362600
     32 O33         -2.5280    -3.5410     2.4410 o          1 UE1      -0.529500
     33 O34         -1.3710    -4.1580     0.2500 o          1 UE1      -0.529500
     34 O35         -0.5170    -1.6360    -1.0840 o          1 UE1      -0.521000
     35 C36         -1.6180     1.0090    -1.6600 c3         1 UE1       0.064000
     36 C37         -2.3300     0.9160    -3.0370 c3         1 UE1       0.170300
     37 C38         -1.9380     2.1030    -3.9670 c3         1 UE1       0.122600
     38 O39         -3.7610     0.8660    -2.8610 oh         1 UE1      -0.676000
     39 O40         -2.4670     1.9340    -5.2970 oh         1 UE1      -0.661000
     40 C41         -4.0230     1.3470     0.4630 ca         1 UE1       0.344700
     41 N42         -4.0620     2.3130    -0.5030 nb         1 UE1      -0.658000
     42 C43         -4.9220     3.3540    -0.3640 ca         1 UE1       0.346900
     43 C44         -5.8000     3.4900     0.7300 ca         1 UE1       0.079100
     44 C45         -5.7810     2.4960     1.7200 ca         1 UE1       0.074100
     45 C46         -4.8890     1.4210     1.5820 ca         1 UE1      -0.166000
     46 O47         -6.6200     2.5820     2.8010 oh         1 UE1      -0.555100
     47 O48         -6.6630     4.5520     0.8440 oh         1 UE1      -0.525100
     48 H9           4.2220    -2.0250    -2.2110 h4         1 UE1       0.177000
     49 H10          1.5160     0.9010     3.3670 h1         1 UE1       0.115700
     50 H11          3.1930     1.5450     5.0830 h4         1 UE1      -0.013800
     51 HN12         2.1070    -2.4130     2.5520 hn         1 UE1       0.325500
     52 H13          3.1010    -1.4310     4.4970 h1         1 UE1       0.057700
     53 H13A         1.5220    -0.8030     5.0150 h1         1 UE1       0.057700
     54 HN15         3.7420    -0.3640     1.7680 hn         1 UE1       0.333500
     55 H23          4.5240     1.7540    -2.5620 hc         1 UE1       0.031700
     56 H23A         4.1440     3.2720    -3.3780 hc         1 UE1       0.031700
     57 H23B         4.0000     3.1640    -1.6140 hc         1 UE1       0.031700
     58 H24          1.1190     0.8990    -3.9850 hc         1 UE1       0.031700
     59 H24A         2.2420     1.9380    -4.8810 hc         1 UE1       0.031700
     60 H24B         2.8500     0.5050    -4.0520 hc         1 UE1       0.031700
     61 HN28         2.4290    -4.7210     2.1270 hn         1 UE1       0.492000
     62 HN2A         3.4420    -5.8090     1.2540 hn         1 UE1       0.492000
     63 HN31         0.6510    -3.1440     1.3830 hn         1 UE1       0.380500
     64 H36         -1.6980     2.0260    -1.2600 h1         1 UE1       0.099700
     65 H36A        -0.5460     0.8440    -1.8250 h1         1 UE1       0.099700
     66 H37         -1.9900    -0.0110    -3.5190 h1         1 UE1       0.068700
     67 H38         -2.3040     3.0410    -3.5260 h1         1 UE1       0.040700
     68 H38A        -0.8430     2.1710    -4.0110 h1         1 UE1       0.040700
     69 HO39        -3.9640     1.4640    -2.0960 ho         1 UE1       0.472000
     70 HO40        -2.2360     2.7420    -5.8060 ho         1 UE1       0.433000
     71 H43         -4.9080     4.1000    -1.1570 h4         1 UE1       0.042100
     72 H46         -4.8580     0.6440     2.3410 ha         1 UE1       0.153000
     73 HO47        -6.4740     1.8070     3.3890 ho         1 UE1       0.481000
     74 HO48        -7.1630     4.4160     1.6820 ho         1 UE1       0.480000
     75 N28          3.1930    -4.8540     1.4830 nv         1 UE1      -1.057900
@<TRIPOS>BOND
     1     1     2 1   
     2     1     5 1   
     3     1    31 1   
     4     2     3 1   
     5     2    34 2   
     6     3     4 1   
     7     3    35 1   
     8     4     5 2   
     9     4    40 1   
    10     6     7 2   
    11     6    27 1   
    12     7     8 1   
    13     7    75 1   
    14     8     9 1   
    15     9    27 2   
    16     9    48 1   
    17    10    11 1   
    18    10    13 1   
    19    10    15 1   
    20    10    49 1   
    21    11    14 2   
    22    11    50 1   
    23    12    13 1   
    24    12    28 1   
    25    12    51 1   
    26    13    52 1   
    27    13    53 1   
    28    15    16 1   
    29    15    54 1   
    30    16    17 2   
    31    16    18 1   
    32    18    19 2   
    33    18    27 1   
    34    19    20 1   
    35    20    21 1   
    36    21    22 1   
    37    21    23 1   
    38    21    24 1   
    39    22    25 1   
    40    22    26 1   
    41    23    55 1   
    42    23    56 1   
    43    23    57 1   
    44    24    58 1   
    45    24    59 1   
    46    24    60 1   
    47    28    29 2   
    48    28    30 1   
    49    30    31 1   
    50    30    63 1   
    51    31    32 2   
    52    31    33 2   
    53    35    36 1   
    54    35    64 1   
    55    35    65 1   
    56    36    37 1   
    57    36    38 1   
    58    36    66 1   
    59    37    39 1   
    60    37    67 1   
    61    37    68 1   
    62    38    69 1   
    63    39    70 1   
    64    40    41 ar  
    65    40    45 ar  
    66    41    42 ar  
    67    42    43 ar  
    68    42    71 1   
    69    43    44 ar  
    70    43    47 1   
    71    44    45 ar  
    72    44    46 1   
    73    45    72 1   
    74    46    73 1   
    75    47    74 1   
    76    61    75 1   
    77    62    75 1   
@<TRIPOS>SUBSTRUCTURE
     1 UE1         1 TEMP              0 ****  ****    0 ROOT
