@<TRIPOS>MOLECULE
UE1
   75    77     1     0     0
SMALL
abcg2


@<TRIPOS>ATOM
      1 N1          -2.0910    -2.2780     0.2440 n          1 UE1      -0.234200
      2 C2          -1.5010    -1.8280    -0.9410 c          1 UE1       0.589000
      3 N3          -1.9930    -0.5530    -1.0520 n          1 UE1      -0.274300
      4 C4          -2.7110    -0.2780     0.0770 cc         1 UE1       0.371900
      5 N5          -2.7990    -1.2880     0.8670 nd         1 UE1      -0.487300
      6 N6           2.2980    -2.7590     0.4540 nc         1 UE1      -0.790000
      7 C7           2.9650    -3.8740     0.3280 cd         1 UE1       0.721300
      8 S8           4.3080    -3.7740    -0.7690 ss         1 UE1      -0.099400
      9 C9           3.9210    -2.1200    -1.0610 cd         1 UE1      -0.245000
     10 C10          1.3430     0.6910     3.1150 c3         1 UE1      -0.053300
     11 C11          1.8950     1.9020     3.8110 c          1 UE1       0.567900
     12 N12          1.1030    -1.7550     3.3660 ns         1 UE1      -0.499900
     13 C13          1.4130    -0.5340     4.0620 c3         1 UE1       0.095000
     14 O14          2.8020     2.5740     3.3940 o          1 UE1      -0.492100
     15 N15          2.0050     0.4360     1.8650 ns         1 UE1      -0.484900
     16 C16          1.3390    -0.0450     0.8030 c          1 UE1       0.544800
     17 O17          0.1330    -0.2010     0.7700 o          1 UE1      -0.607100
     18 C18          2.2110    -0.4400    -0.3610 ce         1 UE1       0.211300
     19 N19          2.4030     0.3050    -1.3730 n2         1 UE1      -0.250700
     20 O20          1.7690     1.4850    -1.2880 os         1 UE1      -0.255000
     21 C21          2.1610     2.3990    -2.3300 c3         1 UE1       0.029000
     22 C22          1.0990     3.5330    -2.3270 c          1 UE1       0.732000
     23 C23          3.5450     2.9440    -1.9990 c3         1 UE1      -0.087600
     24 C24          2.1540     1.7260    -3.6990 c3         1 UE1      -0.087600
     25 O25          0.0730     3.3790    -1.6470 o          1 UE1      -0.706500
     26 O26          1.3850     4.5070    -3.0510 o          1 UE1      -0.706500
     27 C27          2.8310    -1.7660    -0.3400 cc         1 UE1       0.331700
     28 C29         -0.1610    -2.0590     2.9900 c          1 UE1       0.681100
     29 O30         -1.1600    -1.6190     3.5100 o          1 UE1      -0.583100
     30 N31         -0.1620    -2.9890     1.9350 ns         1 UE1      -0.635300
     31 S32         -1.5180    -3.5480     1.1990 s6         1 UE1       1.362600
     32 O33         -2.5390    -3.8050     2.1730 o          1 UE1      -0.529500
     33 O34         -1.0690    -4.5560     0.2750 o          1 UE1      -0.529500
     34 O35         -0.7580    -2.4140    -1.6880 o          1 UE1      -0.521000
     35 C36         -1.5220     0.3740    -2.0580 c3         1 UE1       0.064000
     36 C37         -2.4410     0.4220    -3.2850 c3         1 UE1       0.170300
     37 C38         -2.0300     1.6090    -4.1420 c3         1 UE1       0.122600
     38 O39         -3.8010     0.4500    -2.9490 oh         1 UE1      -0.676000
     39 O40         -2.7630     1.5820    -5.3430 oh         1 UE1      -0.661000
     40 C41         -3.2710     1.0280     0.4410 ca         1 UE1       0.344700
     41 N42         -3.7890     1.7890    -0.5130 nb         1 UE1      -0.658000
     42 C43         -4.2970     2.9690    -0.1810 ca         1 UE1       0.346900
     43 C44         -4.3190     3.4470     1.1200 ca         1 UE1       0.079100
     44 C45         -3.7690     2.6400     2.1270 ca         1 UE1       0.074100
     45 C46         -3.2320     1.4150     1.7750 ca         1 UE1      -0.166000
     46 O47         -3.7940     3.1300     3.3690 oh         1 UE1      -0.555100
     47 O48         -4.8540     4.6500     1.3630 oh         1 UE1      -0.525100
     48 H9           4.5120    -1.5120    -1.7250 h4         1 UE1       0.177000
     49 H10          0.2870     0.9010     2.9130 h1         1 UE1       0.115700
     50 H11          1.3980     2.1310     4.7690 h4         1 UE1      -0.013800
     51 HN12         1.8650    -2.1760     2.8560 hn         1 UE1       0.325500
     52 H13          2.4190    -0.6390     4.4660 h1         1 UE1       0.057700
     53 H13A         0.7350    -0.3900     4.9020 h1         1 UE1       0.057700
     54 HN15         3.0090     0.5340     1.8200 hn         1 UE1       0.333500
     55 H23          4.2900     2.1450    -1.9960 hc         1 UE1       0.031700
     56 H23A         3.8490     3.6830    -2.7370 hc         1 UE1       0.031700
     57 H23B         3.5580     3.4240    -1.0190 hc         1 UE1       0.031700
     58 H24          1.1830     1.2800    -3.9190 hc         1 UE1       0.031700
     59 H24A         2.3530     2.4780    -4.4610 hc         1 UE1       0.031700
     60 H24B         2.9130     0.9480    -3.7830 hc         1 UE1       0.031700
     61 HN28         1.7890    -5.1050     1.4280 hn         1 UE1       0.492000
     62 HN2A         3.1210    -5.8700     0.7090 hn         1 UE1       0.492000
     63 HN31         0.6650    -2.9450     1.3040 hn         1 UE1       0.380500
     64 H36         -1.3980     1.3540    -1.5990 h1         1 UE1       0.099700
     65 H36A        -0.5230     0.0570    -2.3540 h1         1 UE1       0.099700
     66 H37         -2.2840    -0.4920    -3.8680 h1         1 UE1       0.068700
     67 H38         -2.1980     2.5360    -3.5760 h1         1 UE1       0.040700
     68 H38A        -0.9500     1.5500    -4.3310 h1         1 UE1       0.040700
     69 HO39        -3.9150     1.0490    -2.1840 ho         1 UE1       0.472000
     70 HO40        -2.4510     2.3040    -5.8960 ho         1 UE1       0.433000
     71 H43         -4.7140     3.5720    -0.9790 h4         1 UE1       0.042100
     72 H46         -2.7760     0.7690     2.5160 ha         1 UE1       0.153000
     73 HO47        -3.4180     2.5090     4.0040 ho         1 UE1       0.481000
     74 HO48        -4.8220     4.8660     2.3030 ho         1 UE1       0.480000
     75 N28          2.6950    -5.0060     0.9980 nv         1 UE1      -1.057900
@<TRIPOS>BOND
     1     1     2 1   
     2     1     5 1   
     3     1    31 1   
     4     2     3 1   
     5     2    34 2   
     6     3     4 1   
     7     3    35 1   
     8     4     5 2   
     9     4    40 1   
    10     6     7 2   
    11     6    27 1   
    12     7     8 1   
    13     7    75 1   
    14     8     9 1   
    15     9    27 2   
    16     9    48 1   
    17    10    11 1   
    18    10    13 1   
    19    10    15 1   
    20    10    49 1   
    21    11    14 2   
    22    11    50 1   
    23    12    13 1   
    24    12    28 1   
    25    12    51 1   
    26    13    52 1   
    27    13    53 1   
    28    15    16 1   
    29    15    54 1   
    30    16    17 2   
    31    16    18 1   
    32    18    19 2   
    33    18    27 1   
    34    19    20 1   
    35    20    21 1   
    36    21    22 1   
    37    21    23 1   
    38    21    24 1   
    39    22    25 1   
    40    22    26 1   
    41    23    55 1   
    42    23    56 1   
    43    23    57 1   
    44    24    58 1   
    45    24    59 1   
    46    24    60 1   
    47    28    29 2   
    48    28    30 1   
    49    30    31 1   
    50    30    63 1   
    51    31    32 2   
    52    31    33 2   
    53    35    36 1   
    54    35    64 1   
    55    35    65 1   
    56    36    37 1   
    57    36    38 1   
    58    36    66 1   
    59    37    39 1   
    60    37    67 1   
    61    37    68 1   
    62    38    69 1   
    63    39    70 1   
    64    40    41 ar  
    65    40    45 ar  
    66    41    42 ar  
    67    42    43 ar  
    68    42    71 1   
    69    43    44 ar  
    70    43    47 1   
    71    44    45 ar  
    72    44    46 1   
    73    45    72 1   
    74    46    73 1   
    75    47    74 1   
    76    61    75 1   
    77    62    75 1   
@<TRIPOS>SUBSTRUCTURE
     1 UE1         1 TEMP              0 ****  ****    0 ROOT
