@<TRIPOS>MOLECULE
UE2
   72    75     1     0     0
SMALL
abcg2


@<TRIPOS>ATOM
      1 C10        -43.1110    30.9730    24.1250 ca         1 UE2      -0.077500
      2 C13        -44.2560    31.7580    23.9890 ca         1 UE2      -0.153600
      3 C17        -43.4670    36.0330    25.8750 c6         1 UE2       0.140000
      4 C20        -43.0990    37.9280    23.6900 c6         1 UE2       0.208800
      5 C21        -42.1520    36.2420    25.1100 c6         1 UE2       0.178800
      6 C02        -43.5840    24.3540    22.8980 c6         1 UE2      -0.047000
      7 C03        -44.6350    23.7210    21.9830 c3         1 UE2      -0.083100
      8 C04        -44.1890    25.5190    23.6900 c6         1 UE2      -0.066900
      9 C05        -44.4930    26.7310    22.8260 c6         1 UE2       0.167800
     10 C07        -43.5560    28.4000    21.3780 c3         1 UE2       0.209100
     11 C08        -43.8080    29.5750    22.2840 ca         1 UE2      -0.062300
     12 C09        -42.8960    29.8920    23.2870 ca         1 UE2      -0.107000
     13 C11        -44.9480    30.3590    22.1510 ca         1 UE2      -0.107000
     14 C12        -45.1780    31.4320    23.0000 ca         1 UE2      -0.077500
     15 C14        -44.5620    32.8970    24.9090 c          1 UE2       0.614700
     16 C18        -44.6350    36.4050    24.9630 c6         1 UE2      -0.063400
     17 C19        -44.4670    37.7930    24.3470 c6         1 UE2      -0.104400
     18 C23        -41.4630    38.5620    25.4160 ca         1 UE2       0.410900
     19 C25        -40.1470    39.0510    27.2020 ca         1 UE2       0.195900
     20 C27        -40.8490    40.8020    25.9720 ca         1 UE2       0.405900
     21 C29        -41.5450    42.7990    24.7160 c3         1 UE2       0.222100
     22 C30        -41.5380    39.9280    25.1280 ca         1 UE2      -0.360000
     23 C33        -42.7670    26.1380    21.2700 c6         1 UE2       0.167800
     24 C34        -42.4070    24.9040    22.0830 c6         1 UE2      -0.066900
     25 N06        -43.3040    27.1840    22.1230 n3         1 UE2      -0.719600
     26 N15        -43.4940    33.5560    25.3970 ns         1 UE2      -0.506900
     27 N22        -42.0460    37.6090    24.6400 nh         1 UE2      -0.753300
     28 N24        -40.7570    38.1300    26.4800 nb         1 UE2      -0.317000
     29 N26        -40.1390    40.3550    27.0270 nb         1 UE2      -0.292000
     30 N28        -40.8550    42.1320    25.7860 nu         1 UE2      -0.937100
     31 O31        -43.5260    36.8960    26.9940 oh         1 UE2      -0.658000
     32 O32        -45.7160    33.1900    25.1870 o          1 UE2      -0.597100
     33 H1         -42.3900    31.1720    24.9090 ha         1 UE2       0.122000
     34 H2         -43.0170    37.2230    22.8570 h1         1 UE2       0.053700
     35 H3         -42.9550    38.9180    23.2650 h1         1 UE2       0.053700
     36 H4         -42.1310    35.5860    24.2350 h1         1 UE2       0.068700
     37 H5         -41.2930    35.9880    25.7290 h1         1 UE2       0.068700
     38 H6         -43.8940    22.8920    24.4770 hc         1 UE2       0.032867
     39 H7         -42.6340    22.4460    23.3260 hc         1 UE2       0.032867
     40 H8         -42.3200    23.6900    24.5390 hc         1 UE2       0.032867
     41 H9         -45.4680    23.3280    22.5710 hc         1 UE2       0.032867
     42 H10        -45.0530    24.4200    21.2590 hc         1 UE2       0.032867
     43 H11        -44.2060    22.8880    21.4210 hc         1 UE2       0.032867
     44 H12        -43.4880    25.8230    24.4750 hc         1 UE2       0.046450
     45 H13        -45.1040    25.1960    24.1950 hc         1 UE2       0.046450
     46 H14        -44.8580    27.5410    23.4620 h1         1 UE2       0.031450
     47 H15        -45.3090    26.5070    22.1170 h1         1 UE2       0.031450
     48 H16        -42.6740    28.6100    20.7640 h1         1 UE2       0.039200
     49 H17        -44.4000    28.2880    20.6750 h1         1 UE2       0.039200
     50 H18        -42.0150    29.2770    23.4220 ha         1 UE2       0.122500
     51 H19        -45.6750    30.1210    21.3840 ha         1 UE2       0.122500
     52 H20        -46.0810    32.0190    22.8890 ha         1 UE2       0.122000
     53 H21        -44.5020    34.4840    26.9530 h1         1 UE2       0.064700
     54 H22        -42.7520    34.4250    27.1100 h1         1 UE2       0.064700
     55 H23        -45.5730    36.3450    25.5210 hc         1 UE2       0.059700
     56 H24        -44.7010    35.6670    24.1600 hc         1 UE2       0.059700
     57 H25        -44.5870    38.5700    25.1070 hc         1 UE2       0.055200
     58 H26        -45.2460    37.9610    23.6000 hc         1 UE2       0.055200
     59 H27        -39.5810    38.6820    28.0530 h5         1 UE2       0.038100
     60 H28        -41.3690    43.8680    24.8030 h1         1 UE2       0.037700
     61 H29        -41.1900    42.4770    23.7340 h1         1 UE2       0.037700
     62 H30        -42.6240    42.6320    24.7560 h1         1 UE2       0.037700
     63 H31        -42.0990    40.3120    24.2910 ha         1 UE2       0.128000
     64 H32        -41.8690    26.5200    20.7770 h1         1 UE2       0.031450
     65 H33        -43.4720    25.8710    20.4640 h1         1 UE2       0.031450
     66 H34        -42.0190    24.1310    21.4130 hc         1 UE2       0.046450
     67 H35        -41.5920    25.1650    22.7660 hc         1 UE2       0.046450
     68 H37        -42.5770    33.2950    25.0740 hn         1 UE2       0.313500
     69 H38        -40.3260    42.6800    26.4420 hn         1 UE2       0.508000
     70 H39        -42.6530    36.9360    27.4040 ho         1 UE2       0.460000
     71 C01        -43.0790    23.2850    23.8650 c3         1 UE2      -0.083100
     72 C16        -43.5680    34.5910    26.4000 c3         1 UE2       0.079000
@<TRIPOS>BOND
     1     1     2 ar  
     2     1    12 ar  
     3     1    33 1   
     4     2    14 ar  
     5     2    15 1   
     6     3     5 1   
     7     3    16 1   
     8     3    31 1   
     9     3    72 1   
    10     4    17 1   
    11     4    27 1   
    12     4    34 1   
    13     4    35 1   
    14     5    27 1   
    15     5    36 1   
    16     5    37 1   
    17     6     7 1   
    18     6     8 1   
    19     6    24 1   
    20     6    71 1   
    21     7    41 1   
    22     7    42 1   
    23     7    43 1   
    24     8     9 1   
    25     8    44 1   
    26     8    45 1   
    27     9    25 1   
    28     9    46 1   
    29     9    47 1   
    30    10    11 1   
    31    10    25 1   
    32    10    48 1   
    33    10    49 1   
    34    11    12 ar  
    35    11    13 ar  
    36    12    50 1   
    37    13    14 ar  
    38    13    51 1   
    39    14    52 1   
    40    15    26 1   
    41    15    32 2   
    42    16    17 1   
    43    16    55 1   
    44    16    56 1   
    45    17    57 1   
    46    17    58 1   
    47    18    22 ar  
    48    18    27 1   
    49    18    28 ar  
    50    19    28 ar  
    51    19    29 ar  
    52    19    59 1   
    53    20    22 ar  
    54    20    29 ar  
    55    20    30 1   
    56    21    30 1   
    57    21    60 1   
    58    21    61 1   
    59    21    62 1   
    60    22    63 1   
    61    23    24 1   
    62    23    25 1   
    63    23    64 1   
    64    23    65 1   
    65    24    66 1   
    66    24    67 1   
    67    26    68 1   
    68    26    72 1   
    69    30    69 1   
    70    31    70 1   
    71    38    71 1   
    72    39    71 1   
    73    40    71 1   
    74    53    72 1   
    75    54    72 1   
@<TRIPOS>SUBSTRUCTURE
     1 UE2         1 TEMP              0 ****  ****    0 ROOT
