@<TRIPOS>MOLECULE
UE2
   72    75     1     0     0
SMALL
No Charge or Current Charge


@<TRIPOS>ATOM
      1 C10        -43.5430    31.4550    23.9990 ca         1 UE2      -0.077500
      2 C13        -44.8920    31.8860    23.9430 ca         1 UE2      -0.153600
      3 C17        -44.4710    36.1410    26.0010 c6         1 UE2       0.140000
      4 C20        -43.4030    38.0200    23.9390 c6         1 UE2       0.208800
      5 C21        -42.9570    36.2510    25.6320 c6         1 UE2       0.178800
      6 C02        -43.0830    24.4980    22.9540 c6         1 UE2      -0.047000
      7 C03        -44.1090    23.7740    22.0230 c3         1 UE2      -0.083100
      8 C04        -43.7770    25.6080    23.8000 c6         1 UE2      -0.066900
      9 C05        -44.2290    26.8170    22.9400 c6         1 UE2       0.167800
     10 C07        -43.4740    28.6160    21.4110 c3         1 UE2       0.209100
     11 C08        -43.9730    29.7590    22.2930 ca         1 UE2      -0.062300
     12 C09        -43.0940    30.4040    23.1820 ca         1 UE2      -0.107000
     13 C11        -45.3130    30.1810    22.2310 ca         1 UE2      -0.107000
     14 C12        -45.7670    31.2320    23.0460 ca         1 UE2      -0.077500
     15 C14        -45.4180    33.0170    24.8050 c          1 UE2       0.614700
     16 C18        -45.3130    36.4990    24.7400 c6         1 UE2      -0.063400
     17 C19        -44.9280    37.8960    24.1780 c6         1 UE2      -0.104400
     18 C23        -41.3670    38.2110    25.3940 ca         1 UE2       0.410900
     19 C25        -39.1540    37.9560    25.9400 ca         1 UE2       0.195900
     20 C27        -39.8870    40.0800    25.5610 ca         1 UE2       0.405900
     21 C29        -40.4890    42.5420    25.1840 c3         1 UE2       0.222100
     22 C30        -41.1720    39.5950    25.3110 ca         1 UE2      -0.360000
     23 C33        -42.4390    26.3830    21.3060 c6         1 UE2       0.167800
     24 C34        -41.9430    25.1640    22.1270 c6         1 UE2      -0.066900
     25 N06        -43.0930    27.4020    22.1720 n3         1 UE2      -0.719600
     26 N15        -44.5200    33.5990    25.6760 ns         1 UE2      -0.506900
     27 N22        -42.6370    37.6400    25.1630 nh         1 UE2      -0.753300
     28 N24        -40.3530    37.3850    25.7180 nb         1 UE2      -0.317000
     29 N26        -38.8690    39.2710    25.8750 nb         1 UE2      -0.292000
     30 N28        -39.5810    41.4280    25.5060 nu         1 UE2      -0.937100
     31 O31        -44.7400    37.1140    27.0190 oh         1 UE2      -0.658000
     32 O32        -46.5780    33.4020    24.7370 o          1 UE2      -0.597100
     33 H1         -42.8260    31.9220    24.6690 ha         1 UE2       0.122000
     34 H2         -43.1150    37.3630    23.1050 h1         1 UE2       0.053700
     35 H3         -43.1790    39.0490    23.6270 h1         1 UE2       0.053700
     36 H4         -42.7080    35.5180    24.8500 h1         1 UE2       0.068700
     37 H5         -42.3680    35.9890    26.5240 h1         1 UE2       0.068700
     38 H6         -43.2680    22.9320    24.5020 hc         1 UE2       0.032867
     39 H7         -41.9810    22.6200    23.3270 hc         1 UE2       0.032867
     40 H8         -41.7520    23.8370    24.5890 hc         1 UE2       0.032867
     41 H9         -44.9080    23.2990    22.6040 hc         1 UE2       0.032867
     42 H10        -44.5900    24.4590    21.3160 hc         1 UE2       0.032867
     43 H11        -43.6240    22.9890    21.4310 hc         1 UE2       0.032867
     44 H12        -43.0870    25.9690    24.5740 hc         1 UE2       0.046450
     45 H13        -44.6430    25.1940    24.3340 hc         1 UE2       0.046450
     46 H14        -44.6630    27.5690    23.6150 h1         1 UE2       0.031450
     47 H15        -45.0320    26.5040    22.2570 h1         1 UE2       0.031450
     48 H16        -42.6070    28.9860    20.8470 h1         1 UE2       0.039200
     49 H17        -44.2480    28.3670    20.6720 h1         1 UE2       0.039200
     50 H18        -42.0560    30.0820    23.2400 ha         1 UE2       0.122500
     51 H19        -46.0070    29.6920    21.5510 ha         1 UE2       0.122500
     52 H20        -46.8100    31.5370    22.9760 ha         1 UE2       0.122000
     53 H21        -45.8890    34.7070    26.8360 h1         1 UE2       0.064700
     54 H22        -44.2580    34.5790    27.5050 h1         1 UE2       0.064700
     55 H23        -46.3850    36.4730    24.9780 hc         1 UE2       0.059700
     56 H24        -45.1510    35.7470    23.9560 hc         1 UE2       0.059700
     57 H25        -45.2540    38.6840    24.8700 hc         1 UE2       0.055200
     58 H26        -45.4630    38.0790    23.2360 hc         1 UE2       0.055200
     59 H27        -38.3330    37.2890    26.1990 h5         1 UE2       0.038100
     60 H28        -39.9520    43.4990    25.2190 h1         1 UE2       0.037700
     61 H29        -40.9080    42.4170    24.1760 h1         1 UE2       0.037700
     62 H30        -41.3180    42.5830    25.9030 h1         1 UE2       0.037700
     63 H31        -41.9920    40.2610    25.0750 ha         1 UE2       0.128000
     64 H32        -41.5750    26.8260    20.7890 h1         1 UE2       0.031450
     65 H33        -43.1340    26.0420    20.5250 h1         1 UE2       0.031450
     66 H34        -41.4840    24.4300    21.4520 hc         1 UE2       0.046450
     67 H35        -41.1430    25.5000    22.8020 hc         1 UE2       0.046450
     68 H37        -43.5900    33.2040    25.6980 hn         1 UE2       0.313500
     69 H38        -38.6060    41.6570    25.7110 hn         1 UE2       0.508000
     70 H39        -44.1490    37.8630    26.7720 ho         1 UE2       0.460000
     71 C01        -42.4880    23.4090    23.8960 c3         1 UE2      -0.083100
     72 C16        -44.8230    34.7270    26.5750 c3         1 UE2       0.079000
@<TRIPOS>BOND
     1     1     2 ar  
     2     1    12 ar  
     3     1    33 1   
     4     2    14 ar  
     5     2    15 1   
     6     3     5 1   
     7     3    16 1   
     8     3    31 1   
     9     3    72 1   
    10     4    17 1   
    11     4    27 1   
    12     4    34 1   
    13     4    35 1   
    14     5    27 1   
    15     5    36 1   
    16     5    37 1   
    17     6     7 1   
    18     6     8 1   
    19     6    24 1   
    20     6    71 1   
    21     7    41 1   
    22     7    42 1   
    23     7    43 1   
    24     8     9 1   
    25     8    44 1   
    26     8    45 1   
    27     9    25 1   
    28     9    46 1   
    29     9    47 1   
    30    10    11 1   
    31    10    25 1   
    32    10    48 1   
    33    10    49 1   
    34    11    12 ar  
    35    11    13 ar  
    36    12    50 1   
    37    13    14 ar  
    38    13    51 1   
    39    14    52 1   
    40    15    26 1   
    41    15    32 2   
    42    16    17 1   
    43    16    55 1   
    44    16    56 1   
    45    17    57 1   
    46    17    58 1   
    47    18    22 ar  
    48    18    27 1   
    49    18    28 ar  
    50    19    28 ar  
    51    19    29 ar  
    52    19    59 1   
    53    20    22 ar  
    54    20    29 ar  
    55    20    30 1   
    56    21    30 1   
    57    21    60 1   
    58    21    61 1   
    59    21    62 1   
    60    22    63 1   
    61    23    24 1   
    62    23    25 1   
    63    23    64 1   
    64    23    65 1   
    65    24    66 1   
    66    24    67 1   
    67    26    68 1   
    68    26    72 1   
    69    30    69 1   
    70    31    70 1   
    71    38    71 1   
    72    39    71 1   
    73    40    71 1   
    74    53    72 1   
    75    54    72 1   
@<TRIPOS>SUBSTRUCTURE
     1 UE2         1 TEMP              0 ****  ****    0 ROOT
