@<TRIPOS>MOLECULE
UE3
   17    16     1     0     0
SMALL
abcg2


@<TRIPOS>ATOM
      1 CAA         42.2840    30.5070    31.3880 c          1 UE3       0.685000
      2 CAB         42.1710    30.1690    29.8830 c3         1 UE3       0.024300
      3 CAC         41.6070    28.7630    29.6770 c3         1 UE3      -0.070400
      4 CAD         41.4870    28.3380    28.2110 c3         1 UE3      -0.068400
      5 CAE         42.8270    28.2290    27.4850 c3         1 UE3      -0.081100
      6 OAF         41.5650    31.4670    31.7820 o          1 UE3      -0.727500
      7 OAG         43.0620    29.8160    32.0830 o          1 UE3      -0.727500
      8 OAH         41.3530    31.1470    29.2380 oh         1 UE3      -0.720000
      9 H1          43.1810    30.2230    29.4610 h1         1 UE3       0.029700
     10 H2          40.6190    28.7230    30.1480 hc         1 UE3       0.039700
     11 H3          42.2480    28.0570    30.2120 hc         1 UE3       0.039700
     12 H4          40.8400    29.0440    27.6830 hc         1 UE3       0.022700
     13 H5          40.9800    27.3690    28.1740 hc         1 UE3       0.022700
     14 H6          42.6910    27.8690    26.4630 hc         1 UE3       0.020367
     15 H7          43.3350    29.1940    27.4290 hc         1 UE3       0.020367
     16 H8          43.4950    27.5320    27.9990 hc         1 UE3       0.020367
     17 H10         41.0590    31.6940    29.9950 ho         1 UE3       0.470000
@<TRIPOS>BOND
     1     1     2 1   
     2     1     6 1   
     3     1     7 1   
     4     2     3 1   
     5     2     8 1   
     6     2     9 1   
     7     3     4 1   
     8     3    10 1   
     9     3    11 1   
    10     4     5 1   
    11     4    12 1   
    12     4    13 1   
    13     5    14 1   
    14     5    15 1   
    15     5    16 1   
    16     8    17 1   
@<TRIPOS>SUBSTRUCTURE
     1 UE3         1 TEMP              0 ****  ****    0 ROOT
