@<TRIPOS>MOLECULE
UE3
   17    16     1     0     0
SMALL
No Charge or Current Charge


@<TRIPOS>ATOM
      1 CAA         42.3430    30.4850    31.4340 c          1 UE3       0.685000
      2 CAB         42.1610    30.2100    29.8940 c3         1 UE3       0.024300
      3 CAC         41.5480    28.8030    29.6500 c3         1 UE3      -0.070400
      4 CAD         41.4830    28.3490    28.1690 c3         1 UE3      -0.068400
      5 CAE         42.8610    28.1750    27.4970 c3         1 UE3      -0.081100
      6 OAF         41.5400    31.2390    31.9730 o          1 UE3      -0.727500
      7 OAG         43.3330    30.0430    31.9980 o          1 UE3      -0.727500
      8 OAH         41.3320    31.2210    29.2610 oh         1 UE3      -0.720000
      9 H1          43.1670    30.2310    29.4530 h1         1 UE3       0.029700
     10 H2          40.5350    28.7790    30.0710 hc         1 UE3       0.039700
     11 H3          42.1290    28.0620    30.2130 hc         1 UE3       0.039700
     12 H4          40.8840    29.0590    27.5870 hc         1 UE3       0.022700
     13 H5          40.9550    27.3890    28.1240 hc         1 UE3       0.022700
     14 H6          42.7410    27.7790    26.4810 hc         1 UE3       0.020367
     15 H7          43.3890    29.1340    27.4240 hc         1 UE3       0.020367
     16 H8          43.4860    27.4760    28.0650 hc         1 UE3       0.020367
     17 H10         40.9170    31.7080    30.0150 ho         1 UE3       0.470000
@<TRIPOS>BOND
     1     1     2 1   
     2     1     6 1   
     3     1     7 1   
     4     2     3 1   
     5     2     8 1   
     6     2     9 1   
     7     3     4 1   
     8     3    10 1   
     9     3    11 1   
    10     4     5 1   
    11     4    12 1   
    12     4    13 1   
    13     5    14 1   
    14     5    15 1   
    15     5    16 1   
    16     8    17 1   
@<TRIPOS>SUBSTRUCTURE
     1 UE3         1 TEMP              0 ****  ****    0 ROOT
