@<TRIPOS>MOLECULE
UE5
   82    86     1     0     0
SMALL
No Charge or Current Charge


@<TRIPOS>ATOM
      1 C10         45.2140   -31.4010    22.2030 ca         1 UE5      -0.077000
      2 C13         44.3770   -32.0590    23.1330 ca         1 UE5      -0.154600
      3 C17         43.4770   -36.4960    24.5660 c6         1 UE5       0.138000
      4 C20         41.7600   -37.7280    22.4430 c6         1 UE5       0.207800
      5 C21         41.9280   -36.2910    24.4770 c6         1 UE5       0.178800
      6 C02         43.8550   -24.4230    23.6260 c6         1 UE5      -0.047000
      7 C03         43.6220   -23.4430    24.8150 c3         1 UE5      -0.083100
      8 C04         44.4470   -25.7640    24.1540 c6         1 UE5      -0.066900
      9 C05         44.5300   -26.8530    23.0530 c6         1 UE5       0.168800
     10 C07         43.2310   -28.2010    21.4270 c3         1 UE5       0.211100
     11 C08         43.6340   -29.5500    22.0200 ca         1 UE5      -0.062300
     12 C09         44.8470   -30.1600    21.6530 ca         1 UE5      -0.109500
     13 C11         42.7940   -30.1960    22.9440 ca         1 UE5      -0.109500
     14 C12         43.1570   -31.4370    23.4960 ca         1 UE5      -0.077000
     15 C14         44.8060   -33.3970    23.7030 c          1 UE5       0.614700
     16 C18         44.0300   -36.7480    23.1280 c6         1 UE5      -0.062400
     17 C19         43.2960   -37.9270    22.4250 c6         1 UE5      -0.104400
     18 C23         40.5480   -38.4320    24.5690 ca         1 UE5       0.408900
     19 C25         39.0950   -38.8840    26.2840 ca         1 UE5       0.191900
     20 C27         39.9250   -40.6690    25.1340 ca         1 UE5       0.403900
     21 C29         40.9910   -42.8250    24.2680 c3         1 UE5       0.283100
     22 C30         42.3880   -42.5700    24.8330 ca         1 UE5      -0.115300
     23 C31         42.6880   -42.8950    26.1720 ca         1 UE5      -0.098000
     24 C32         43.9710   -42.6510    26.6930 ca         1 UE5      -0.108500
     25 C33         44.9650   -42.0820    25.8790 ca         1 UE5      -0.104000
     26 C34         44.6760   -41.7600    24.5420 ca         1 UE5      -0.108500
     27 C35         43.3940   -42.0060    24.0200 ca         1 UE5      -0.098000
     28 C36         40.6510   -39.8040    24.3150 ca         1 UE5      -0.352000
     29 C39         42.6290   -25.8490    21.8520 c6         1 UE5       0.168800
     30 C40         42.4990   -24.7370    22.9260 c6         1 UE5      -0.066900
     31 N06         43.2030   -27.1000    22.4210 n3         1 UE5      -0.722600
     32 N15         43.9560   -33.9780    24.6220 ns         1 UE5      -0.504900
     33 N22         41.2880   -37.4820    23.8330 nh         1 UE5      -0.752300
     34 N24         39.7720   -37.9670    25.5650 nb         1 UE5      -0.310000
     35 N26         39.1330   -40.2200    26.1160 nb         1 UE5      -0.291000
     36 N28         39.9730   -42.0430    24.9910 nu         1 UE5      -0.940100
     37 O37         43.7290   -37.6660    25.3570 oh         1 UE5      -0.654000
     38 O38         45.8500   -33.9420    23.3700 o          1 UE5      -0.599100
     39 H1          46.1580   -31.8490    21.9010 ha         1 UE5       0.122000
     40 H2          41.5010   -36.8660    21.8100 h1         1 UE5       0.054200
     41 H3          41.2620   -38.5990    21.9930 h1         1 UE5       0.054200
     42 H4          41.7060   -35.3870    23.8900 h1         1 UE5       0.067700
     43 H5          41.5290   -36.1100    25.4860 h1         1 UE5       0.067700
     44 H6          45.7990   -23.4860    23.1420 hc         1 UE5       0.033033
     45 H7          45.0790   -24.3270    21.7690 hc         1 UE5       0.033033
     46 H8          44.4340   -22.7670    22.2790 hc         1 UE5       0.033033
     47 H9          44.5590   -23.2140    25.3360 hc         1 UE5       0.033033
     48 H10         43.1920   -22.4930    24.4740 hc         1 UE5       0.033033
     49 H11         42.9320   -23.8670    25.5550 hc         1 UE5       0.033033
     50 H12         43.8250   -26.1460    24.9760 hc         1 UE5       0.046450
     51 H13         45.4460   -25.5970    24.5810 hc         1 UE5       0.046450
     52 H14         44.9120   -27.7740    23.5150 h1         1 UE5       0.031700
     53 H15         45.2660   -26.5520    22.2930 h1         1 UE5       0.031700
     54 H16         42.2350   -28.3190    20.9790 h1         1 UE5       0.039200
     55 H17         43.9180   -27.9470    20.6080 h1         1 UE5       0.039200
     56 H18         45.5100   -29.6730    20.9420 ha         1 UE5       0.123500
     57 H19         41.8560   -29.7300    23.2370 ha         1 UE5       0.123500
     58 H20         42.4740   -31.8980    24.2050 ha         1 UE5       0.122000
     59 H21         45.2530   -35.4830    25.3300 h1         1 UE5       0.064700
     60 H22         43.7990   -35.2170    26.3000 h1         1 UE5       0.064700
     61 H23         45.1090   -36.9490    23.1660 hc         1 UE5       0.059200
     62 H24         43.9050   -35.8440    22.5180 hc         1 UE5       0.059200
     63 H25         43.5500   -38.8770    22.9160 hc         1 UE5       0.057700
     64 H26         43.6430   -38.0170    21.3870 hc         1 UE5       0.057700
     65 H27         38.4610   -38.5090    27.0850 h5         1 UE5       0.037100
     66 H28         40.9700   -42.5690    23.2000 h1         1 UE5       0.054200
     67 H29         40.7660   -43.8980    24.3480 h1         1 UE5       0.054200
     68 H30         41.9240   -43.3320    26.8110 ha         1 UE5       0.112500
     69 H31         44.1940   -42.9010    27.7280 ha         1 UE5       0.114500
     70 H32         45.9570   -41.8910    26.2830 ha         1 UE5       0.115000
     71 H33         45.4440   -41.3200    23.9110 ha         1 UE5       0.114500
     72 H34         43.1830   -41.7540    22.9830 ha         1 UE5       0.112500
     73 H35         41.2880   -40.1850    23.5290 ha         1 UE5       0.133000
     74 H36         41.6300   -26.0480    21.4380 h1         1 UE5       0.031700
     75 H37         43.2510   -25.4870    21.0200 h1         1 UE5       0.031700
     76 H38         42.0900   -23.8280    22.4640 hc         1 UE5       0.046450
     77 H39         41.7610   -25.0580    23.6730 hc         1 UE5       0.046450
     78 H41         43.1300   -33.4510    24.8700 hn         1 UE5       0.313500
     79 H42         39.3940   -42.5530    25.6590 hn         1 UE5       0.507000
     80 H43         43.0240   -38.2920    25.0760 ho         1 UE5       0.455000
     81 C01         44.8460   -23.7140    22.6470 c3         1 UE5      -0.083100
     82 C16         44.1750   -35.2840    25.2700 c3         1 UE5       0.078000
@<TRIPOS>BOND
     1     1     2 ar  
     2     1    12 ar  
     3     1    39 1   
     4     2    14 ar  
     5     2    15 1   
     6     3     5 1   
     7     3    16 1   
     8     3    37 1   
     9     3    82 1   
    10     4    17 1   
    11     4    33 1   
    12     4    40 1   
    13     4    41 1   
    14     5    33 1   
    15     5    42 1   
    16     5    43 1   
    17     6     7 1   
    18     6     8 1   
    19     6    30 1   
    20     6    81 1   
    21     7    47 1   
    22     7    48 1   
    23     7    49 1   
    24     8     9 1   
    25     8    50 1   
    26     8    51 1   
    27     9    31 1   
    28     9    52 1   
    29     9    53 1   
    30    10    11 1   
    31    10    31 1   
    32    10    54 1   
    33    10    55 1   
    34    11    12 ar  
    35    11    13 ar  
    36    12    56 1   
    37    13    14 ar  
    38    13    57 1   
    39    14    58 1   
    40    15    32 1   
    41    15    38 2   
    42    16    17 1   
    43    16    61 1   
    44    16    62 1   
    45    17    63 1   
    46    17    64 1   
    47    18    28 ar  
    48    18    33 1   
    49    18    34 ar  
    50    19    34 ar  
    51    19    35 ar  
    52    19    65 1   
    53    20    28 ar  
    54    20    35 ar  
    55    20    36 1   
    56    21    22 1   
    57    21    36 1   
    58    21    66 1   
    59    21    67 1   
    60    22    23 ar  
    61    22    27 ar  
    62    23    24 ar  
    63    23    68 1   
    64    24    25 ar  
    65    24    69 1   
    66    25    26 ar  
    67    25    70 1   
    68    26    27 ar  
    69    26    71 1   
    70    27    72 1   
    71    28    73 1   
    72    29    30 1   
    73    29    31 1   
    74    29    74 1   
    75    29    75 1   
    76    30    76 1   
    77    30    77 1   
    78    32    78 1   
    79    32    82 1   
    80    36    79 1   
    81    37    80 1   
    82    44    81 1   
    83    45    81 1   
    84    46    81 1   
    85    59    82 1   
    86    60    82 1   
@<TRIPOS>SUBSTRUCTURE
     1 UE5         1 TEMP              0 ****  ****    0 ROOT
