@<TRIPOS>MOLECULE
UE5
   82    86     1     0     0
SMALL
abcg2


@<TRIPOS>ATOM
      1 C10         45.1890   -31.6950    22.7600 ca         1 UE5      -0.077000
      2 C13         44.3800   -31.9700    23.8590 ca         1 UE5      -0.154600
      3 C17         43.2940   -36.2330    25.5320 c6         1 UE5       0.138000
      4 C20         42.3330   -37.7050    23.2130 c6         1 UE5       0.207800
      5 C21         41.8580   -36.1630    24.9890 c6         1 UE5       0.178800
      6 C02         43.6310   -24.4700    23.0690 c6         1 UE5      -0.047000
      7 C03         43.1040   -23.4400    24.0660 c3         1 UE5      -0.083100
      8 C04         44.2570   -25.6460    23.8280 c6         1 UE5      -0.066900
      9 C05         44.5890   -26.8240    22.9280 c6         1 UE5       0.168800
     10 C07         43.6830   -28.4690    21.4330 c3         1 UE5       0.211100
     11 C08         43.9420   -29.6780    22.2930 ca         1 UE5      -0.062300
     12 C09         44.9650   -30.5690    21.9850 ca         1 UE5      -0.109500
     13 C11         43.1480   -29.9430    23.4060 ca         1 UE5      -0.109500
     14 C12         43.3590   -31.0740    24.1770 ca         1 UE5      -0.077000
     15 C14         44.6720   -33.1920    24.6690 c          1 UE5       0.614700
     16 C18         44.2480   -36.6390    24.4100 c6         1 UE5      -0.062400
     17 C19         43.7770   -37.8860    23.6630 c6         1 UE5      -0.104400
     18 C23         40.8920   -38.4040    25.0760 ca         1 UE5       0.408900
     19 C25         39.7580   -39.0290    26.9380 ca         1 UE5       0.191900
     20 C27         40.1390   -40.6430    25.4140 ca         1 UE5       0.403900
     21 C29         40.5240   -42.5080    23.8490 c3         1 UE5       0.283100
     22 C30         42.0360   -42.5260    23.7680 ca         1 UE5      -0.115300
     23 C31         42.8110   -42.8460    24.8780 ca         1 UE5      -0.098000
     24 C32         44.1960   -42.8630    24.7910 ca         1 UE5      -0.108500
     25 C33         44.8260   -42.5610    23.5900 ca         1 UE5      -0.104000
     26 C34         44.0600   -42.2440    22.4760 ca         1 UE5      -0.108500
     27 C35         42.6740   -42.2270    22.5680 ca         1 UE5      -0.098000
     28 C36         40.7880   -39.7150    24.6020 ca         1 UE5      -0.352000
     29 C39         42.8520   -26.2210    21.3880 c6         1 UE5       0.168800
     30 C40         42.4670   -25.0180    22.2350 c6         1 UE5      -0.066900
     31 N06         43.4110   -27.2800    22.2090 n3         1 UE5      -0.722600
     32 N15         43.6160   -33.7450    25.2950 ns         1 UE5      -0.504900
     33 N22         41.4840   -37.4130    24.3570 nh         1 UE5      -0.752300
     34 N24         40.3640   -38.0680    26.2680 nb         1 UE5      -0.310000
     35 N26         39.6090   -40.2940    26.6030 nb         1 UE5      -0.291000
     36 N28         40.0050   -41.9370    25.0640 nu         1 UE5      -0.940100
     37 O37         43.3900   -37.2320    26.5290 oh         1 UE5      -0.654000
     38 O38         45.8060   -33.6480    24.7340 o          1 UE5      -0.599100
     39 H1          45.9980   -32.3680    22.5060 ha         1 UE5       0.122000
     40 H2          42.2630   -36.8550    22.5290 h1         1 UE5       0.054200
     41 H3          41.9670   -38.5680    22.6620 h1         1 UE5       0.054200
     42 H4          41.7790   -35.3730    24.2370 h1         1 UE5       0.067700
     43 H5          41.1550   -35.9220    25.7850 h1         1 UE5       0.067700
     44 H6          45.4970   -23.4020    22.7720 hc         1 UE5       0.033033
     45 H7          45.1000   -24.4650    21.4310 hc         1 UE5       0.033033
     46 H8          44.2280   -22.9520    21.6340 hc         1 UE5       0.033033
     47 H9          43.9110   -23.0440    24.6860 hc         1 UE5       0.033033
     48 H10         42.6380   -22.5960    23.5500 hc         1 UE5       0.033033
     49 H11         42.3570   -23.8800    24.7300 hc         1 UE5       0.033033
     50 H12         43.5610   -25.9880    24.6010 hc         1 UE5       0.046450
     51 H13         45.1640   -25.3190    24.3450 hc         1 UE5       0.046450
     52 H14         44.9690   -27.6450    23.5400 h1         1 UE5       0.031700
     53 H15         45.4020   -26.5620    22.2280 h1         1 UE5       0.031700
     54 H16         42.8080   -28.6720    20.8060 h1         1 UE5       0.039200
     55 H17         44.5280   -28.3280    20.7380 h1         1 UE5       0.039200
     56 H18         45.6040   -30.3750    21.1310 ha         1 UE5       0.123500
     57 H19         42.3650   -29.2460    23.6790 ha         1 UE5       0.123500
     58 H20         42.7310   -31.2290    25.0460 ha         1 UE5       0.122000
     59 H21         44.7070   -34.9700    26.5640 h1         1 UE5       0.064700
     60 H22         43.0290   -34.7020    27.0220 h1         1 UE5       0.064700
     61 H23         45.2510   -36.7890    24.8190 hc         1 UE5       0.059200
     62 H24         44.3230   -35.8160    23.6940 hc         1 UE5       0.059200
     63 H25         43.8560   -38.7750    24.2950 hc         1 UE5       0.057700
     64 H26         44.4140   -38.0590    22.7940 hc         1 UE5       0.057700
     65 H27         39.3320   -38.7390    27.8950 h5         1 UE5       0.037100
     66 H28         40.1240   -41.9820    22.9760 h1         1 UE5       0.054200
     67 H29         40.1420   -43.5280    23.7910 h1         1 UE5       0.054200
     68 H30         42.3320   -43.0750    25.8230 ha         1 UE5       0.112500
     69 H31         44.7860   -43.1100    25.6640 ha         1 UE5       0.114500
     70 H32         45.9060   -42.5690    23.5240 ha         1 UE5       0.115000
     71 H33         44.5400   -42.0020    21.5370 ha         1 UE5       0.114500
     72 H34         42.0820   -41.9660    21.6980 ha         1 UE5       0.112500
     73 H35         41.2150   -40.0160    23.6600 ha         1 UE5       0.133000
     74 H36         41.9600   -26.6070    20.8860 h1         1 UE5       0.031700
     75 H37         43.5480   -25.9170    20.5870 h1         1 UE5       0.031700
     76 H38         42.0660   -24.2330    21.5860 hc         1 UE5       0.046450
     77 H39         41.6540   -25.3150    22.9070 hc         1 UE5       0.046450
     78 H41         42.7060   -33.3390    25.1510 hn         1 UE5       0.313500
     79 H42         39.5400   -42.5370    25.7250 hn         1 UE5       0.507000
     80 H43         42.6290   -37.1600    27.1160 ho         1 UE5       0.455000
     81 C01         44.6710   -23.7920    22.1740 c3         1 UE5      -0.083100
     82 C16         43.6920   -34.8890    26.1720 c3         1 UE5       0.078000
@<TRIPOS>BOND
     1     1     2 ar  
     2     1    12 ar  
     3     1    39 1   
     4     2    14 ar  
     5     2    15 1   
     6     3     5 1   
     7     3    16 1   
     8     3    37 1   
     9     3    82 1   
    10     4    17 1   
    11     4    33 1   
    12     4    40 1   
    13     4    41 1   
    14     5    33 1   
    15     5    42 1   
    16     5    43 1   
    17     6     7 1   
    18     6     8 1   
    19     6    30 1   
    20     6    81 1   
    21     7    47 1   
    22     7    48 1   
    23     7    49 1   
    24     8     9 1   
    25     8    50 1   
    26     8    51 1   
    27     9    31 1   
    28     9    52 1   
    29     9    53 1   
    30    10    11 1   
    31    10    31 1   
    32    10    54 1   
    33    10    55 1   
    34    11    12 ar  
    35    11    13 ar  
    36    12    56 1   
    37    13    14 ar  
    38    13    57 1   
    39    14    58 1   
    40    15    32 1   
    41    15    38 2   
    42    16    17 1   
    43    16    61 1   
    44    16    62 1   
    45    17    63 1   
    46    17    64 1   
    47    18    28 ar  
    48    18    33 1   
    49    18    34 ar  
    50    19    34 ar  
    51    19    35 ar  
    52    19    65 1   
    53    20    28 ar  
    54    20    35 ar  
    55    20    36 1   
    56    21    22 1   
    57    21    36 1   
    58    21    66 1   
    59    21    67 1   
    60    22    23 ar  
    61    22    27 ar  
    62    23    24 ar  
    63    23    68 1   
    64    24    25 ar  
    65    24    69 1   
    66    25    26 ar  
    67    25    70 1   
    68    26    27 ar  
    69    26    71 1   
    70    27    72 1   
    71    28    73 1   
    72    29    30 1   
    73    29    31 1   
    74    29    74 1   
    75    29    75 1   
    76    30    76 1   
    77    30    77 1   
    78    32    78 1   
    79    32    82 1   
    80    36    79 1   
    81    37    80 1   
    82    44    81 1   
    83    45    81 1   
    84    46    81 1   
    85    59    82 1   
    86    60    82 1   
@<TRIPOS>SUBSTRUCTURE
     1 UE5         1 TEMP              0 ****  ****    0 ROOT
