@<TRIPOS>MOLECULE
UE6
   97   100     1     0     0
SMALL
No Charge or Current Charge


@<TRIPOS>ATOM
      1 N1         212.2020   212.2120   206.3520 ns         1 UE6      -0.512900
      2 N3         211.0950   212.2480   201.7630 ns         1 UE6      -0.515900
      3 C4         218.8560   211.4320   209.8430 cc         1 UE6       0.446300
      4 C5         218.7810   211.2290   207.7080 cd         1 UE6       0.187500
      5 C6         219.7490   210.3890   208.1990 cc         1 UE6       0.175900
      6 C7         212.7800   210.9850   204.3680 ce         1 UE6      -0.308200
      7 C8         213.0640   209.8660   203.6550 c2         1 UE6      -0.122200
      8 C10        213.1490   210.9650   201.3250 c3         1 UE6      -0.150400
      9 C13        209.6670   212.6010   201.7480 c3         1 UE6       0.078000
     10 C15        210.2150   212.1040   197.3710 cc         1 UE6       0.206300
     11 C17        215.1670   209.5480   202.2250 c3         1 UE6       0.179300
     12 C21        216.1630   210.7440   204.1020 c          1 UE6       0.585100
     13 C22        216.8470   212.1040   204.4380 c5         1 UE6       0.054700
     14 C24        215.7490   213.2070   204.5220 c5         1 UE6      -0.081400
     15 C26        216.9760   213.3430   206.5730 c5         1 UE6       0.118000
     16 C28        211.0520   211.7410   196.1580 c3         1 UE6       0.133500
     17 C1         212.2720   210.9690   205.7670 c          1 UE6       0.600300
     18 O1         211.9640   209.9420   206.3520 o          1 UE6      -0.593100
     19 C2         217.3970   212.7640   211.4480 c3         1 UE6       0.189300
     20 N2         218.2080   211.8910   208.7890 nd         1 UE6      -0.664000
     21 O2         219.8120   210.5080   209.5550 os         1 UE6      -0.266000
     22 C3         218.5180   211.7120   211.2810 c3         1 UE6      -0.119700
     23 N4         209.4590   212.8450   199.2410 na         1 UE6       0.114800
     24 O4         210.9260   210.2170   200.7410 o          1 UE6      -0.575100
     25 N5         208.4470   212.1460   198.6330 nd         1 UE6      -0.188800
     26 O5         215.8150   210.7190   202.7710 os         1 UE6      -0.469100
     27 N6         208.9150   211.6980   197.4950 nc         1 UE6      -0.353000
     28 N7         217.4780   212.1930   205.7880 n          1 UE6      -0.390800
     29 O7         215.9660   209.8190   204.8810 o          1 UE6      -0.449000
     30 N8         210.9410   212.7170   195.0390 n8         1 UE6      -0.999200
     31 C9         213.6160   209.7840   202.2330 c3         1 UE6      -0.043500
     32 C11        211.6230   211.0810   201.2520 c          1 UE6       0.589100
     33 C12        211.7250   212.4760   207.7100 c3         1 UE6       0.141200
     34 C14        209.2800   213.4940   200.5490 c3         1 UE6       0.053600
     35 C16        210.5880   212.8390   198.4530 cd         1 UE6      -0.199000
     36 C18        215.8230   209.2830   200.8300 c3         1 UE6      -0.064700
     37 C19        217.3500   209.0430   200.9560 c3         1 UE6      -0.093100
     38 C23        212.7980   213.1730   208.5170 c2         1 UE6      -0.240200
     39 C25        216.4020   214.2490   205.4570 c5         1 UE6      -0.101400
     40 C27        218.4580   211.2630   206.2320 c          1 UE6       0.557600
     41 C29        213.0730   212.9300   209.8220 ce         1 UE6      -0.156000
     42 C30        214.1210   213.5900   210.6290 ce         1 UE6      -0.066200
     43 C31        214.8590   214.7600   209.9820 c3         1 UE6      -0.060900
     44 C32        214.3740   213.1420   211.8860 c2         1 UE6      -0.207200
     45 C33        215.4250   213.6140   212.8790 c3         1 UE6       0.211500
     46 C34        216.6970   212.7350   212.8250 c3         1 UE6      -0.133400
     47 F1         217.9140   214.0000   211.2390 f          1 UE6      -0.281000
     48 H43        212.4760   213.0000   205.7810 hn         1 UE6       0.305500
     49 H44        211.7530   212.9140   202.1510 hn         1 UE6       0.304500
     50 H4         220.4150   209.6870   207.7170 h4         1 UE6       0.079100
     51 H5         212.9510   211.9690   203.9430 ha         1 UE6       0.165000
     52 H6         212.9040   208.8850   204.1110 ha         1 UE6       0.212000
     53 H9         213.4990   210.7870   200.3030 hc         1 UE6       0.064200
     54 H8         213.5880   211.9040   201.6820 hc         1 UE6       0.064200
     55 H12        209.4330   213.1360   202.6780 h1         1 UE6       0.080700
     56 H13        209.0580   211.6870   201.7340 h1         1 UE6       0.080700
     57 H17        215.3740   208.6570   202.8350 h1         1 UE6       0.082700
     58 H22        214.1300   208.3310   199.7940 hc         1 UE6       0.042367
     59 H24        215.7060   207.9100   199.1250 hc         1 UE6       0.042367
     60 H23        215.1840   207.1890   200.6620 hc         1 UE6       0.042367
     61 H25        217.5800   212.3270   203.6520 h1         1 UE6       0.091700
     62 H27        215.4830   213.6140   203.5400 hc         1 UE6       0.058200
     63 H28        214.8330   212.8210   204.9810 hc         1 UE6       0.058200
     64 H31        217.7710   213.8580   207.1300 h1         1 UE6       0.069200
     65 H32        216.1950   213.0240   207.2770 h1         1 UE6       0.069200
     66 H33        210.7450   210.7510   195.7930 h1         1 UE6       0.041700
     67 H34        212.1070   211.6730   196.4600 h1         1 UE6       0.041700
     68 H1         216.6360   212.5740   210.6800 h1         1 UE6       0.090700
     69 H3         218.1990   210.7700   211.7410 hc         1 UE6       0.082200
     70 H2         219.4150   212.0380   211.8200 hc         1 UE6       0.082200
     71 H47        215.5340   213.9110   214.8060 ho         1 UE6       0.442000
     72 H45        211.4610   212.3600   194.2270 hn         1 UE6       0.399000
     73 H46        209.9660   212.7350   194.7120 hn         1 UE6       0.399000
     74 H7         213.1710   208.8790   201.8010 hc         1 UE6       0.100700
     75 H11        210.8320   213.1140   207.6500 h1         1 UE6       0.061700
     76 H10        211.4340   211.5370   208.1990 h1         1 UE6       0.061700
     77 H15        209.8830   214.4100   200.5690 h1         1 UE6       0.073700
     78 H14        208.2280   213.7880   200.6480 h1         1 UE6       0.073700
     79 H16        211.5190   213.3250   198.7120 h4         1 UE6       0.159000
     80 H18        215.7000   210.1840   200.2160 hc         1 UE6       0.050700
     81 H21        217.8550   209.9100   201.3990 hc         1 UE6       0.042367
     82 H20        217.5570   208.1680   201.5830 hc         1 UE6       0.042367
     83 H19        217.7990   208.8700   199.9700 hc         1 UE6       0.042367
     84 H26        213.3580   213.9160   207.9490 ha         1 UE6       0.164000
     85 H29        217.2000   214.7990   204.9430 hc         1 UE6       0.054700
     86 H30        215.6870   214.9850   205.8410 hc         1 UE6       0.054700
     87 H35        212.4890   212.1680   210.3430 ha         1 UE6       0.180000
     88 H37        215.4700   215.3310   210.6870 hc         1 UE6       0.044367
     89 H36        215.5270   214.4110   209.1870 hc         1 UE6       0.044367
     90 H38        214.1570   215.4750   209.5380 hc         1 UE6       0.044367
     91 H39        213.7970   212.3030   212.2750 ha         1 UE6       0.187000
     92 H40        215.7050   214.6550   212.6740 h1         1 UE6       0.049700
     93 H41        216.4180   211.7010   213.0640 hc         1 UE6       0.061200
     94 H42        217.4080   213.0600   213.5950 hc         1 UE6       0.061200
     95 C20        215.1690   208.1070   200.0610 c3         1 UE6      -0.093100
     96 O3         214.8690   213.5320   214.1910 oh         1 UE6      -0.659000
     97 O6         219.0000   210.5140   205.4240 o          1 UE6      -0.608100
@<TRIPOS>BOND
     1     1    17 1   
     2     1    33 1   
     3     1    48 1   
     4     2     9 1   
     5     2    32 1   
     6     2    49 1   
     7     3    20 2   
     8     3    21 1   
     9     3    22 1   
    10     4     5 2   
    11     4    20 1   
    12     4    40 1   
    13     5    21 1   
    14     5    50 1   
    15     6     7 2   
    16     6    17 1   
    17     6    51 1   
    18     7    31 1   
    19     7    52 1   
    20     8    31 1   
    21     8    32 1   
    22     8    53 1   
    23     8    54 1   
    24     9    34 1   
    25     9    55 1   
    26     9    56 1   
    27    10    16 1   
    28    10    27 1   
    29    10    35 2   
    30    11    26 1   
    31    11    31 1   
    32    11    36 1   
    33    11    57 1   
    34    12    13 1   
    35    12    26 1   
    36    12    29 2   
    37    13    14 1   
    38    13    28 1   
    39    13    61 1   
    40    14    39 1   
    41    14    62 1   
    42    14    63 1   
    43    15    28 1   
    44    15    39 1   
    45    15    64 1   
    46    15    65 1   
    47    16    30 1   
    48    16    66 1   
    49    16    67 1   
    50    17    18 2   
    51    19    22 1   
    52    19    46 1   
    53    19    47 1   
    54    19    68 1   
    55    22    69 1   
    56    22    70 1   
    57    23    25 1   
    58    23    34 1   
    59    23    35 1   
    60    24    32 2   
    61    25    27 2   
    62    28    40 1   
    63    30    72 1   
    64    30    73 1   
    65    31    74 1   
    66    33    38 1   
    67    33    75 1   
    68    33    76 1   
    69    34    77 1   
    70    34    78 1   
    71    35    79 1   
    72    36    37 1   
    73    36    80 1   
    74    36    95 1   
    75    37    81 1   
    76    37    82 1   
    77    37    83 1   
    78    38    41 2   
    79    38    84 1   
    80    39    85 1   
    81    39    86 1   
    82    40    97 2   
    83    41    42 1   
    84    41    87 1   
    85    42    43 1   
    86    42    44 2   
    87    43    88 1   
    88    43    89 1   
    89    43    90 1   
    90    44    45 1   
    91    44    91 1   
    92    45    46 1   
    93    45    92 1   
    94    45    96 1   
    95    46    93 1   
    96    46    94 1   
    97    58    95 1   
    98    59    95 1   
    99    60    95 1   
   100    71    96 1   
@<TRIPOS>SUBSTRUCTURE
     1 UE6         1 TEMP              0 ****  ****    0 ROOT
