@<TRIPOS>MOLECULE
UE6
   97   100     1     0     0
SMALL
abcg2


@<TRIPOS>ATOM
      1 N1         211.7460   212.6020   206.6420 ns         1 UE6      -0.512900
      2 N3         210.7130   212.9540   201.4420 ns         1 UE6      -0.515900
      3 C4         219.0250   211.2430   209.2960 cc         1 UE6       0.446300
      4 C5         218.9240   211.4350   207.1690 cd         1 UE6       0.187500
      5 C6         220.2170   211.1770   207.4840 cc         1 UE6       0.175900
      6 C7         212.3390   211.4670   204.6350 ce         1 UE6      -0.308200
      7 C8         212.7880   210.4120   203.9610 c2         1 UE6      -0.122200
      8 C10        212.6970   211.5880   201.7100 c3         1 UE6      -0.150400
      9 C13        209.3830   213.2580   200.9570 c3         1 UE6       0.078000
     10 C15        211.3580   211.1780   197.7430 cc         1 UE6       0.206300
     11 C17        214.6090   210.0170   202.3270 c3         1 UE6       0.179300
     12 C21        215.8760   211.0800   204.0810 c          1 UE6       0.585100
     13 C22        216.5030   212.4150   204.4510 c5         1 UE6       0.054700
     14 C24        215.4190   213.4950   204.6710 c5         1 UE6      -0.081400
     15 C26        216.6200   213.2500   206.7240 c5         1 UE6       0.118000
     16 C28        212.5310   210.4560   197.1720 c3         1 UE6       0.133500
     17 C1         212.1450   211.4270   206.1080 c          1 UE6       0.600300
     18 O1         212.3380   210.4170   206.7910 o          1 UE6      -0.593100
     19 C2         217.6290   212.1610   211.1040 c3         1 UE6       0.189300
     20 N2         218.1820   211.4640   208.3450 nd         1 UE6      -0.664000
     21 O2         220.2980   211.0620   208.8440 os         1 UE6      -0.266000
     22 C3         218.7350   211.1790   210.7540 c3         1 UE6      -0.119700
     23 N4         209.9850   212.5750   198.6590 na         1 UE6       0.114800
     24 O4         210.4850   210.6970   201.4010 o          1 UE6      -0.575100
     25 N5         209.2650   211.5230   198.2440 nd         1 UE6      -0.188800
     26 O5         215.3860   211.1410   202.8410 os         1 UE6      -0.469100
     27 N6         210.0920   210.6790   197.6850 nc         1 UE6      -0.353000
     28 N7         217.2070   212.3390   205.7250 n          1 UE6      -0.390800
     29 O7         215.8000   210.1220   204.8120 o          1 UE6      -0.449000
     30 N8         212.7130   210.7790   195.7450 n8         1 UE6      -0.999200
     31 C9         213.1150   210.3520   202.4990 c3         1 UE6      -0.043500
     32 C11        211.1950   211.6920   201.5230 c          1 UE6       0.589100
     33 C12        211.5300   212.8100   208.0670 c3         1 UE6       0.141200
     34 C14        209.3830   213.6240   199.4670 c3         1 UE6       0.053600
     35 C16        211.2920   212.4020   198.3690 cd         1 UE6      -0.199000
     36 C18        215.0900   209.7670   200.8960 c3         1 UE6      -0.064700
     37 C19        216.5590   209.3350   200.9050 c3         1 UE6      -0.093100
     38 C23        212.7440   213.3260   208.7850 c2         1 UE6      -0.240200
     39 C25        215.9480   214.3060   205.8540 c5         1 UE6      -0.101400
     40 C27        218.3390   211.6120   205.8210 c          1 UE6       0.557600
     41 C29        213.2140   212.7990   209.9190 ce         1 UE6      -0.156000
     42 C30        214.3450   213.3060   210.6990 ce         1 UE6      -0.066200
     43 C31        215.0370   214.5420   210.1940 c3         1 UE6      -0.060900
     44 C32        214.7040   212.6420   211.8110 c2         1 UE6      -0.207200
     45 C33        215.8450   212.9390   212.7330 c3         1 UE6       0.211500
     46 C34        217.0400   212.0020   212.4840 c3         1 UE6      -0.133400
     47 F1         218.1750   213.4700   210.9860 f          1 UE6      -0.281000
     48 H43        211.6340   213.3930   206.0270 hn         1 UE6       0.305500
     49 H44        211.3710   213.7150   201.5140 hn         1 UE6       0.304500
     50 H4         221.1270   211.0670   206.9240 h4         1 UE6       0.079100
     51 H5         212.1320   212.4090   204.1430 ha         1 UE6       0.165000
     52 H6         212.9840   209.5030   204.5200 ha         1 UE6       0.212000
     53 H9         213.1030   211.5300   200.6980 hc         1 UE6       0.064200
     54 H8         213.1010   212.4990   202.1510 hc         1 UE6       0.064200
     55 H12        208.9710   214.0990   201.5160 h1         1 UE6       0.080700
     56 H13        208.7550   212.3870   201.1260 h1         1 UE6       0.080700
     57 H17        214.8400   209.1440   202.9370 h1         1 UE6       0.082700
     58 H22        213.2020   209.0640   200.0390 hc         1 UE6       0.042367
     59 H24        214.6460   208.4930   199.2120 hc         1 UE6       0.042367
     60 H23        214.1920   207.7920   200.7690 hc         1 UE6       0.042367
     61 H25        217.1880   212.7000   203.6510 h1         1 UE6       0.091700
     62 H27        215.2570   214.0830   203.7710 hc         1 UE6       0.058200
     63 H28        214.4750   213.0230   204.9420 hc         1 UE6       0.058200
     64 H31        217.3880   213.6530   207.3750 h1         1 UE6       0.069200
     65 H32        215.8900   212.7200   207.3390 h1         1 UE6       0.069200
     66 H33        212.3960   209.3830   197.3560 h1         1 UE6       0.041700
     67 H34        213.4310   210.7640   197.7060 h1         1 UE6       0.041700
     68 H1         216.8460   212.1050   210.3500 h1         1 UE6       0.090700
     69 H3         218.4090   210.1680   211.0150 hc         1 UE6       0.082200
     70 H2         219.6360   211.3920   211.3320 hc         1 UE6       0.082200
     71 H47        216.0750   212.9490   214.6840 ho         1 UE6       0.442000
     72 H45        213.5180   210.2720   195.3900 hn         1 UE6       0.399000
     73 H46        211.9130   210.4360   195.2210 hn         1 UE6       0.399000
     74 H7         212.5750   209.4930   202.0940 hc         1 UE6       0.100700
     75 H11        210.7120   213.5300   208.1620 h1         1 UE6       0.061700
     76 H10        211.2000   211.8690   208.5050 h1         1 UE6       0.061700
     77 H15        209.9530   214.5360   199.2960 h1         1 UE6       0.073700
     78 H14        208.3630   213.7760   199.1190 h1         1 UE6       0.073700
     79 H16        212.0420   213.1290   198.6240 h4         1 UE6       0.159000
     80 H18        215.0180   210.7090   200.3440 hc         1 UE6       0.050700
     81 H21        217.1940   210.0740   201.3950 hc         1 UE6       0.042367
     82 H20        216.6750   208.3830   201.4310 hc         1 UE6       0.042367
     83 H19        216.9190   209.2020   199.8840 hc         1 UE6       0.042367
     84 H26        213.2160   214.1960   208.3410 ha         1 UE6       0.164000
     85 H29        216.6870   215.0370   205.5200 hc         1 UE6       0.054700
     86 H30        215.1560   214.8310   206.3870 hc         1 UE6       0.054700
     87 H35        212.7210   211.9190   210.3260 ha         1 UE6       0.180000
     88 H37        215.8390   214.8710   210.8490 hc         1 UE6       0.044367
     89 H36        215.4680   214.3600   209.2060 hc         1 UE6       0.044367
     90 H38        214.3220   215.3600   210.0810 hc         1 UE6       0.044367
     91 H39        214.1440   211.7500   212.0800 ha         1 UE6       0.187000
     92 H40        216.1790   213.9720   212.6150 h1         1 UE6       0.049700
     93 H41        216.7020   210.9680   212.5950 hc         1 UE6       0.061200
     94 H42        217.8090   212.1860   213.2390 hc         1 UE6       0.061200
     95 C20        214.2250   208.7210   200.1920 c3         1 UE6      -0.093100
     96 O3         215.3540   212.7540   214.0720 oh         1 UE6      -0.659000
     97 O6         218.8690   211.0820   204.8380 o          1 UE6      -0.608100
@<TRIPOS>BOND
     1     1    17 1   
     2     1    33 1   
     3     1    48 1   
     4     2     9 1   
     5     2    32 1   
     6     2    49 1   
     7     3    20 2   
     8     3    21 1   
     9     3    22 1   
    10     4     5 2   
    11     4    20 1   
    12     4    40 1   
    13     5    21 1   
    14     5    50 1   
    15     6     7 2   
    16     6    17 1   
    17     6    51 1   
    18     7    31 1   
    19     7    52 1   
    20     8    31 1   
    21     8    32 1   
    22     8    53 1   
    23     8    54 1   
    24     9    34 1   
    25     9    55 1   
    26     9    56 1   
    27    10    16 1   
    28    10    27 1   
    29    10    35 2   
    30    11    26 1   
    31    11    31 1   
    32    11    36 1   
    33    11    57 1   
    34    12    13 1   
    35    12    26 1   
    36    12    29 2   
    37    13    14 1   
    38    13    28 1   
    39    13    61 1   
    40    14    39 1   
    41    14    62 1   
    42    14    63 1   
    43    15    28 1   
    44    15    39 1   
    45    15    64 1   
    46    15    65 1   
    47    16    30 1   
    48    16    66 1   
    49    16    67 1   
    50    17    18 2   
    51    19    22 1   
    52    19    46 1   
    53    19    47 1   
    54    19    68 1   
    55    22    69 1   
    56    22    70 1   
    57    23    25 1   
    58    23    34 1   
    59    23    35 1   
    60    24    32 2   
    61    25    27 2   
    62    28    40 1   
    63    30    72 1   
    64    30    73 1   
    65    31    74 1   
    66    33    38 1   
    67    33    75 1   
    68    33    76 1   
    69    34    77 1   
    70    34    78 1   
    71    35    79 1   
    72    36    37 1   
    73    36    80 1   
    74    36    95 1   
    75    37    81 1   
    76    37    82 1   
    77    37    83 1   
    78    38    41 2   
    79    38    84 1   
    80    39    85 1   
    81    39    86 1   
    82    40    97 2   
    83    41    42 1   
    84    41    87 1   
    85    42    43 1   
    86    42    44 2   
    87    43    88 1   
    88    43    89 1   
    89    43    90 1   
    90    44    45 1   
    91    44    91 1   
    92    45    46 1   
    93    45    92 1   
    94    45    96 1   
    95    46    93 1   
    96    46    94 1   
    97    58    95 1   
    98    59    95 1   
    99    60    95 1   
   100    71    96 1   
@<TRIPOS>SUBSTRUCTURE
     1 UE6         1 TEMP              0 ****  ****    0 ROOT
