@<TRIPOS>MOLECULE
UE7
   29    29     1     0     0
SMALL
abcg2


@<TRIPOS>ATOM
      1 O2         -17.5490    35.0100    38.5960 o          1 UE7      -0.547000
      2 S          -16.9300    34.4230    39.7750 sy         1 UE7       1.135600
      3 O1         -17.3680    33.1020    40.2010 o          1 UE7      -0.547000
      4 N1         -15.2980    34.5110    39.5190 n8         1 UE7      -1.005100
      5 C4         -17.1350    35.5250    41.1340 ca         1 UE7      -0.311500
      6 C3         -16.9360    36.8870    40.9360 ca         1 UE7       0.024000
      7 C2         -17.2020    37.7690    41.9620 ca         1 UE7      -0.186500
      8 C5         -17.5610    35.0440    42.3610 ca         1 UE7       0.024000
      9 C6         -17.8110    35.9290    43.3950 ca         1 UE7      -0.186500
     10 C1         -17.6700    37.3040    43.1970 ca         1 UE7       0.041000
     11 N          -17.9380    38.2240    44.2000 ns         1 UE7      -0.178000
     12 C          -18.9820    38.2410    45.1120 c          1 UE7       0.658100
     13 O          -18.9960    39.0780    46.0020 o          1 UE7      -0.617100
     14 N2         -19.9450    37.3120    44.9500 ns         1 UE7      -0.515900
     15 C7         -21.1020    37.2530    45.8220 c3         1 UE7       0.112000
     16 C8         -21.9150    36.0080    45.5200 c3         1 UE7      -0.112100
     17 H1         -14.7640    34.0120    40.2240 hn         1 UE7       0.473500
     18 H2         -15.0460    34.1860    38.5900 hn         1 UE7       0.473500
     19 H3         -16.5900    37.2670    39.9840 ha         1 UE7       0.139000
     20 H4         -17.0710    38.8320    41.8040 ha         1 UE7       0.129000
     21 H5         -17.6910    33.9840    42.5270 ha         1 UE7       0.139000
     22 H6         -18.1080    35.5380    44.3590 ha         1 UE7       0.129000
     23 H7         -17.4280    39.0950    44.1590 hn         1 UE7       0.171000
     24 H8         -20.0140    36.8200    44.0730 hn         1 UE7       0.320500
     25 H9         -20.7670    37.2350    46.8590 h1         1 UE7       0.052200
     26 H10        -21.7270    38.1430    45.7030 h1         1 UE7       0.052200
     27 H11        -22.7850    35.9630    46.1730 hc         1 UE7       0.044033
     28 H12        -22.2740    36.0060    44.4900 hc         1 UE7       0.044033
     29 H13        -21.3260    35.1030    45.6760 hc         1 UE7       0.044033
@<TRIPOS>BOND
     1     1     2 2   
     2     2     3 2   
     3     2     4 1   
     4     2     5 1   
     5     4    17 1   
     6     4    18 1   
     7     5     6 ar  
     8     5     8 ar  
     9     6     7 ar  
    10     6    19 1   
    11     7    10 ar  
    12     7    20 1   
    13     8     9 ar  
    14     8    21 1   
    15     9    10 ar  
    16     9    22 1   
    17    10    11 1   
    18    11    12 1   
    19    11    23 1   
    20    12    13 2   
    21    12    14 1   
    22    14    15 1   
    23    14    24 1   
    24    15    16 1   
    25    15    25 1   
    26    15    26 1   
    27    16    27 1   
    28    16    28 1   
    29    16    29 1   
@<TRIPOS>SUBSTRUCTURE
     1 UE7         1 TEMP              0 ****  ****    0 ROOT
