@<TRIPOS>MOLECULE
UE7
   29    29     1     0     0
SMALL
No Charge or Current Charge


@<TRIPOS>ATOM
      1 O2         -16.7930    35.1350    38.3990 o          1 UE7      -0.547000
      2 S          -16.7800    34.4580    39.6940 sy         1 UE7       1.135600
      3 O1         -17.4330    33.1690    39.9090 o          1 UE7      -0.547000
      4 N1         -15.2020    34.1330    39.9390 n8         1 UE7      -1.005100
      5 C4         -17.1630    35.6010    41.0190 ca         1 UE7      -0.311500
      6 C3         -17.0030    36.9870    40.8250 ca         1 UE7       0.024000
      7 C2         -17.3030    37.8790    41.8680 ca         1 UE7      -0.186500
      8 C5         -17.6090    35.1160    42.2630 ca         1 UE7       0.024000
      9 C6         -17.9100    36.0150    43.3010 ca         1 UE7      -0.186500
     10 C1         -17.7760    37.4050    43.1030 ca         1 UE7       0.041000
     11 N          -18.0520    38.3440    44.1290 ns         1 UE7      -0.178000
     12 C          -19.0170    38.3560    45.1180 c          1 UE7       0.658100
     13 O          -19.0190    39.1850    46.0170 o          1 UE7      -0.617100
     14 N2         -19.9940    37.3970    45.0000 ns         1 UE7      -0.515900
     15 C7         -21.1080    37.2290    45.9310 c3         1 UE7       0.112000
     16 C8         -21.8830    35.9330    45.6490 c3         1 UE7      -0.112100
     17 H1         -15.2260    33.1160    39.9440 hn         1 UE7       0.473500
     18 H2         -14.8300    34.3330    39.0140 hn         1 UE7       0.473500
     19 H3         -16.6450    37.3760    39.8720 ha         1 UE7       0.139000
     20 H4         -17.1760    38.9480    41.7090 ha         1 UE7       0.129000
     21 H5         -17.7160    34.0450    42.4340 ha         1 UE7       0.139000
     22 H6         -18.2170    35.6160    44.2650 ha         1 UE7       0.129000
     23 H7         -17.4070    39.1210    44.1670 hn         1 UE7       0.171000
     24 H8         -19.9320    36.7860    44.1960 hn         1 UE7       0.320500
     25 H9         -20.7180    37.2050    46.9580 h1         1 UE7       0.052200
     26 H10        -21.7830    38.0910    45.8380 h1         1 UE7       0.052200
     27 H11        -22.7110    35.8240    46.3580 hc         1 UE7       0.044033
     28 H12        -22.2980    35.9420    44.6340 hc         1 UE7       0.044033
     29 H13        -21.2260    35.0600    45.7500 hc         1 UE7       0.044033
@<TRIPOS>BOND
     1     1     2 2   
     2     2     3 2   
     3     2     4 1   
     4     2     5 1   
     5     4    17 1   
     6     4    18 1   
     7     5     6 ar  
     8     5     8 ar  
     9     6     7 ar  
    10     6    19 1   
    11     7    10 ar  
    12     7    20 1   
    13     8     9 ar  
    14     8    21 1   
    15     9    10 ar  
    16     9    22 1   
    17    10    11 1   
    18    11    12 1   
    19    11    23 1   
    20    12    13 2   
    21    12    14 1   
    22    14    15 1   
    23    14    24 1   
    24    15    16 1   
    25    15    25 1   
    26    15    26 1   
    27    16    27 1   
    28    16    28 1   
    29    16    29 1   
@<TRIPOS>SUBSTRUCTURE
     1 UE7         1 TEMP              0 ****  ****    0 ROOT
