@<TRIPOS>MOLECULE
UE8
   29    31     1     0     0
SMALL
No Charge or Current Charge


@<TRIPOS>ATOM
      1 C2          -4.4710    15.8350    19.1970 c          1 UE8       0.513500
      2 N6          -3.7330    18.0350    17.5170 n          1 UE8      -0.210000
      3 C7          -3.3000    19.2010    16.7030 c3         1 UE8       0.085000
      4 C8          -3.1630    18.9140    15.1880 c5         1 UE8       0.136300
      5 C10         -2.8970    20.1560    14.3110 c5         1 UE8      -0.104400
      6 C11         -2.4360    19.4740    12.9920 c5         1 UE8      -0.112400
      7 C12         -1.7750    18.1510    13.4890 c5         1 UE8       0.149600
      8 C14         -2.7960    17.0920    17.9410 cc         1 UE8      -0.003400
      9 C16         -0.9520    15.9210    18.2880 cc         1 UE8       0.398400
     10 C19         -3.0670    16.0250    18.7400 cd         1 UE8       0.130500
     11 O1          -4.8650    14.9290    19.9190 o          1 UE8      -0.479000
     12 N3          -5.3240    16.7990    18.7100 ns         1 UE8      -0.414500
     13 C4          -5.0700    17.8800    17.9010 cs         1 UE8       0.467400
     14 S5          -6.3380    18.8780    17.4570 s          1 UE8      -0.594400
     15 O13         -1.9880    18.1290    14.9170 os         1 UE8      -0.468000
     16 N15         -1.4600    17.0240    17.6390 na         1 UE8      -0.303500
     17 N17         -1.9070    15.2930    18.9680 nd         1 UE8      -0.582000
     18 H1          -2.3360    19.5620    17.0810 h1         1 UE8       0.079200
     19 H2          -4.0060    20.0290    16.8370 h1         1 UE8       0.079200
     20 H3          -4.0550    18.3700    14.8430 h1         1 UE8       0.096700
     21 H4          -2.1080    20.7870    14.7370 hc         1 UE8       0.060200
     22 H5          -3.7880    20.7800    14.1760 hc         1 UE8       0.060200
     23 H6          -1.7380    20.0990    12.4230 hc         1 UE8       0.063700
     24 H7          -3.2850    19.2570    12.3340 hc         1 UE8       0.063700
     25 H8          -2.2510    17.2700    13.0390 h1         1 UE8       0.044700
     26 H9          -0.6970    18.1140    13.2840 h1         1 UE8       0.044700
     27 H10          0.0900    15.6290    18.2160 h5         1 UE8       0.068100
     28 H11         -6.2870    16.6900    18.9930 hn         1 UE8       0.362500
     29 H12         -0.9470    17.6290    17.0120 hn         1 UE8       0.369000
@<TRIPOS>BOND
     1     1    10 1   
     2     1    11 2   
     3     1    12 1   
     4     2     3 1   
     5     2     8 1   
     6     2    13 1   
     7     3     4 1   
     8     3    18 1   
     9     3    19 1   
    10     4     5 1   
    11     4    15 1   
    12     4    20 1   
    13     5     6 1   
    14     5    21 1   
    15     5    22 1   
    16     6     7 1   
    17     6    23 1   
    18     6    24 1   
    19     7    15 1   
    20     7    25 1   
    21     7    26 1   
    22     8    10 2   
    23     8    16 1   
    24     9    16 1   
    25     9    17 2   
    26     9    27 1   
    27    10    17 1   
    28    12    13 1   
    29    12    28 1   
    30    13    14 2   
    31    16    29 1   
@<TRIPOS>SUBSTRUCTURE
     1 UE8         1 TEMP              0 ****  ****    0 ROOT
