@<TRIPOS>MOLECULE
UE8
   29    31     1     0     0
SMALL
bcc


@<TRIPOS>ATOM
      1 C2          -4.3380    15.8840    19.1990 c          1 UE8       0.656000
      2 N6          -3.6860    18.0760    17.4590 n          1 UE8      -0.277000
      3 C7          -3.2970    19.1960    16.6040 c3         1 UE8       0.085000
      4 C8          -3.4900    18.8930    15.1290 c5         1 UE8       0.113100
      5 C10         -3.0420    20.0630    14.2470 c5         1 UE8      -0.104400
      6 C11         -2.3470    19.3610    13.0840 c5         1 UE8      -0.112400
      7 C12         -1.7510    18.1490    13.7770 c5         1 UE8       0.126400
      8 C14         -2.7760    17.1230    17.8200 cc         1 UE8      -0.018000
      9 C16         -0.9910    15.9130    18.1220 cc         1 UE8       0.398400
     10 C19         -3.0270    16.0630    18.6580 cd         1 UE8       0.195800
     11 O1          -4.7290    15.0230    19.9580 o          1 UE8      -0.554500
     12 N3          -5.2070    16.8750    18.7270 ns         1 UE8      -0.548500
     13 C4          -4.9630    17.9360    17.9100 cs         1 UE8       0.601400
     14 S5          -6.1980    18.9830    17.5120 s          1 UE8      -0.594400
     15 O13         -2.7120    17.7670    14.7510 os         1 UE8      -0.421600
     16 N15         -1.4740    17.0230    17.4850 na         1 UE8      -0.303900
     17 N17         -1.8970    15.3170    18.8350 nd         1 UE8      -0.582000
     18 H1          -2.2560    19.4440    16.8190 h1         1 UE8       0.079200
     19 H2          -3.8940    20.0580    16.8910 h1         1 UE8       0.079200
     20 H3          -4.5450    18.6550    14.9560 h1         1 UE8       0.096700
     21 H4          -2.3330    20.7020    14.7800 hc         1 UE8       0.060200
     22 H5          -3.8810    20.6850    13.9400 hc         1 UE8       0.060200
     23 H6          -1.5920    19.9820    12.6020 hc         1 UE8       0.063700
     24 H7          -3.0710    19.0570    12.3250 hc         1 UE8       0.063700
     25 H8          -1.5780    17.3040    13.1080 h1         1 UE8       0.044700
     26 H9          -0.7950    18.4050    14.2520 h1         1 UE8       0.044700
     27 H10          0.0370    15.6070    18.0090 h5         1 UE8       0.068100
     28 H11         -6.1650    16.8050    19.0470 hn         1 UE8       0.362500
     29 H12         -0.9530    17.6030    16.8450 hn         1 UE8       0.318700
@<TRIPOS>BOND
     1     1    10 1   
     2     1    11 2   
     3     1    12 1   
     4     2     3 1   
     5     2     8 1   
     6     2    13 1   
     7     3     4 1   
     8     3    18 1   
     9     3    19 1   
    10     4     5 1   
    11     4    15 1   
    12     4    20 1   
    13     5     6 1   
    14     5    21 1   
    15     5    22 1   
    16     6     7 1   
    17     6    23 1   
    18     6    24 1   
    19     7    15 1   
    20     7    25 1   
    21     7    26 1   
    22     8    10 2   
    23     8    16 1   
    24     9    16 1   
    25     9    17 2   
    26     9    27 1   
    27    10    17 1   
    28    12    13 1   
    29    12    28 1   
    30    13    14 2   
    31    16    29 1   
@<TRIPOS>SUBSTRUCTURE
     1 UE8         1 TEMP              0 ****  ****    0 ROOT
