@<TRIPOS>MOLECULE
UE9
   50    52     1     0     0
SMALL
abcg2


@<TRIPOS>ATOM
      1 C10         17.7920   -13.4960   -30.7880 ca         1 UE9       0.286000
      2 C13         18.0880   -10.7360   -30.5850 ca         1 UE9      -0.117000
      3 C15         17.5430   -12.8700   -29.5580 ca         1 UE9      -0.086300
      4 C17         16.0680   -15.0880   -32.7970 ca         1 UE9      -0.174000
      5 C21         14.5910   -11.9280   -31.3990 ca         1 UE9      -0.120600
      6 C22         14.7610   -11.0160   -32.4370 ca         1 UE9      -0.099000
      7 C26         14.0220   -10.1210   -29.9150 ca         1 UE9      -0.174300
      8 C28         13.6520    -9.6130   -28.5490 c3         1 UE9       0.347300
      9 C01         14.5070   -18.4710   -37.1550 c3         1 UE9       0.097300
     10 C05         16.0390   -17.2170   -33.9260 ca         1 UE9      -0.255600
     11 C06         16.9370   -17.6590   -32.9570 ca         1 UE9       0.447900
     12 C08         17.0500   -15.6040   -31.9130 ca         1 UE9       0.644900
     13 C11         18.2170   -12.7510   -31.8880 ca         1 UE9      -0.146000
     14 C12         18.3490   -11.3730   -31.7940 ca         1 UE9      -0.104000
     15 C14         17.7040   -11.4870   -29.4820 ca         1 UE9      -0.095000
     16 C16         17.0870   -13.6640   -28.3680 c3         1 UE9      -0.054800
     17 C19         14.8310   -13.4010   -31.5570 c          1 UE9       0.614700
     18 C23         14.5610    -9.6730   -32.1810 ca         1 UE9       0.156000
     19 C25         14.1990    -9.1940   -30.9400 ca         1 UE9      -0.083000
     20 C27         14.2140   -11.4750   -30.1360 ca         1 UE9      -0.025000
     21 C32         15.5930   -15.8990   -33.8050 ca         1 UE9      -0.008000
     22 F24         14.7250    -8.7950   -33.1940 f          1 UE9      -0.172000
     23 F29         14.7140    -9.0590   -27.9130 f          1 UE9      -0.108333
     24 F30         13.1810   -10.5810   -27.7430 f          1 UE9      -0.108333
     25 F31         12.7040    -8.6510   -28.6100 f          1 UE9      -0.108333
     26 N02         14.9960   -17.6430   -36.0670 ns         1 UE9      -0.507900
     27 N07         17.4340   -16.8900   -31.9970 nb         1 UE9      -0.750000
     28 N09         17.6190   -14.8950   -30.8940 nu         1 UE9      -0.950900
     29 O04         15.7190   -19.3910   -34.8350 o          1 UE9      -0.608100
     30 O20         14.4250   -14.2060   -30.7260 o          1 UE9      -0.568100
     31 H131        18.1830    -9.6610   -30.5030 ha         1 UE9       0.120000
     32 H221        15.0280   -11.3100   -33.4420 ha         1 UE9       0.134000
     33 H011        14.0210   -17.8260   -37.8830 h1         1 UE9       0.042367
     34 H012        15.3220   -19.0100   -37.6420 h1         1 UE9       0.042367
     35 H013        13.7850   -19.2010   -36.7870 h1         1 UE9       0.042367
     36 H061        17.2750   -18.6880   -32.9770 h4         1 UE9       0.047100
     37 H111        18.4330   -13.2580   -32.8200 ha         1 UE9       0.119000
     38 H121        18.6590   -10.8030   -32.6600 ha         1 UE9       0.117000
     39 H141        17.4940   -10.9910   -28.5420 ha         1 UE9       0.121000
     40 H163        16.1890   -14.2380   -28.6060 hc         1 UE9       0.052700
     41 H162        17.8500   -14.3790   -28.0460 hc         1 UE9       0.052700
     42 H161        16.8690   -13.0050   -27.5290 hc         1 UE9       0.052700
     43 H251        14.0550    -8.1340   -30.7850 ha         1 UE9       0.152000
     44 H271        14.0880   -12.1920   -29.3390 ha         1 UE9       0.161000
     45 H321        14.8320   -15.4920   -34.4580 ha         1 UE9       0.121000
     46 H021        14.9890   -16.6460   -36.1950 hn         1 UE9       0.311500
     47 H091        18.1020   -15.4720   -30.2200 hn         1 UE9       0.515000
     48 H181        15.9240   -13.0640   -33.2500 hn         1 UE9       0.152000
     49 N18         15.5410   -13.7780   -32.6500 ns         1 UE9      -0.148000
     50 C03         15.5750   -18.1710   -34.9710 c          1 UE9       0.621700
@<TRIPOS>BOND
     1     1     3 ar  
     2     1    13 ar  
     3     1    28 1   
     4     2    14 ar  
     5     2    15 ar  
     6     2    31 1   
     7     3    15 ar  
     8     3    16 1   
     9     4    12 ar  
    10     4    21 ar  
    11     4    49 1   
    12     5     6 ar  
    13     5    17 1   
    14     5    20 ar  
    15     6    18 ar  
    16     6    32 1   
    17     7     8 1   
    18     7    19 ar  
    19     7    20 ar  
    20     8    23 1   
    21     8    24 1   
    22     8    25 1   
    23     9    26 1   
    24     9    33 1   
    25     9    34 1   
    26     9    35 1   
    27    10    11 ar  
    28    10    21 ar  
    29    10    50 1   
    30    11    27 ar  
    31    11    36 1   
    32    12    27 ar  
    33    12    28 1   
    34    13    14 ar  
    35    13    37 1   
    36    14    38 1   
    37    15    39 1   
    38    16    40 1   
    39    16    41 1   
    40    16    42 1   
    41    17    30 2   
    42    17    49 1   
    43    18    19 ar  
    44    18    22 1   
    45    19    43 1   
    46    20    44 1   
    47    21    45 1   
    48    26    46 1   
    49    26    50 1   
    50    28    47 1   
    51    29    50 2   
    52    48    49 1   
@<TRIPOS>SUBSTRUCTURE
     1 UE9         1 TEMP              0 ****  ****    0 ROOT
