@<TRIPOS>MOLECULE
UE9
   50    52     1     0     0
SMALL
No Charge or Current Charge


@<TRIPOS>ATOM
      1 C10         17.7910   -13.5600   -30.6680 ca         1 UE9       0.286000
      2 C13         18.0210   -10.8120   -30.0780 ca         1 UE9      -0.117000
      3 C15         17.7360   -13.1200   -29.3230 ca         1 UE9      -0.086300
      4 C17         16.0000   -15.1130   -32.8360 ca         1 UE9      -0.174000
      5 C21         14.5550   -11.8510   -31.4430 ca         1 UE9      -0.120600
      6 C22         14.7630   -11.0320   -32.5800 ca         1 UE9      -0.099000
      7 C26         13.9390    -9.8470   -30.1490 ca         1 UE9      -0.174300
      8 C28         13.5200    -9.2210   -28.8140 c3         1 UE9       0.347300
      9 C01         14.3350   -18.5610   -37.1320 c3         1 UE9       0.097300
     10 C05         16.1770   -17.1980   -34.0480 ca         1 UE9      -0.255600
     11 C06         17.1680   -17.5840   -33.1290 ca         1 UE9       0.447900
     12 C08         17.0420   -15.5930   -32.0050 ca         1 UE9       0.644900
     13 C11         17.9930   -12.6210   -31.6980 ca         1 UE9      -0.146000
     14 C12         18.1030   -11.2510   -31.4080 ca         1 UE9      -0.104000
     15 C14         17.8450   -11.7420   -29.0400 ca         1 UE9      -0.095000
     16 C16         17.5230   -14.1040   -28.1750 c3         1 UE9      -0.054800
     17 C19         14.8090   -13.3450   -31.4660 c          1 UE9       0.614700
     18 C23         14.5640    -9.6460   -32.4970 ca         1 UE9       0.156000
     19 C25         14.1590    -9.0510   -31.2940 ca         1 UE9      -0.083000
     20 C27         14.1430   -11.2410   -30.2350 ca         1 UE9      -0.025000
     21 C32         15.5770   -15.9280   -33.8970 ca         1 UE9      -0.008000
     22 F24         14.7740    -8.8750   -33.5870 f          1 UE9      -0.172000
     23 F29         14.5670    -9.1380   -27.9630 f          1 UE9      -0.108333
     24 F30         12.5640    -9.9500   -28.1950 f          1 UE9      -0.108333
     25 F31         13.0240    -7.9710   -28.9530 f          1 UE9      -0.108333
     26 N02         14.8290   -17.7520   -36.0150 ns         1 UE9      -0.507900
     27 N07         17.5990   -16.7930   -32.1210 nb         1 UE9      -0.750000
     28 N09         17.6430   -14.9120   -30.9830 nu         1 UE9      -0.950900
     29 O04         16.3230   -19.2630   -35.2300 o          1 UE9      -0.608100
     30 O20         14.5490   -14.0580   -30.5020 o          1 UE9      -0.568100
     31 H131        18.0990    -9.7510   -29.8500 ha         1 UE9       0.120000
     32 H221        15.0850   -11.4470   -33.5310 ha         1 UE9       0.134000
     33 H011        13.5660   -18.0010   -37.6790 h1         1 UE9       0.042367
     34 H012        15.1640   -18.7970   -37.8130 h1         1 UE9       0.042367
     35 H013        13.9000   -19.4940   -36.7500 h1         1 UE9       0.042367
     36 H061        17.6520   -18.5580   -33.1980 h4         1 UE9       0.047100
     37 H111        18.0630   -12.9540   -32.7300 ha         1 UE9       0.119000
     38 H121        18.2480   -10.5330   -32.2110 ha         1 UE9       0.117000
     39 H141        17.7880   -11.3880   -28.0130 ha         1 UE9       0.121000
     40 H163        16.6020   -14.6820   -28.3170 hc         1 UE9       0.052700
     41 H162        18.3580   -14.8110   -28.1020 hc         1 UE9       0.052700
     42 H161        17.4400   -13.5930   -27.2090 hc         1 UE9       0.052700
     43 H251        14.0250    -7.9730   -31.2620 ha         1 UE9       0.152000
     44 H271        13.9970   -11.8550   -29.3470 ha         1 UE9       0.161000
     45 H321        14.7880   -15.5800   -34.5600 ha         1 UE9       0.121000
     46 H021        14.4380   -16.8290   -35.8780 hn         1 UE9       0.311500
     47 H091        18.0820   -15.5610   -30.3400 hn         1 UE9       0.515000
     48 H181        15.4450   -13.2060   -33.4000 hn         1 UE9       0.152000
     49 N18         15.3610   -13.8580   -32.6320 ns         1 UE9      -0.148000
     50 C03         15.8000   -18.1630   -35.1300 c          1 UE9       0.621700
@<TRIPOS>BOND
     1     1     3 ar  
     2     1    13 ar  
     3     1    28 1   
     4     2    14 ar  
     5     2    15 ar  
     6     2    31 1   
     7     3    15 ar  
     8     3    16 1   
     9     4    12 ar  
    10     4    21 ar  
    11     4    49 1   
    12     5     6 ar  
    13     5    17 1   
    14     5    20 ar  
    15     6    18 ar  
    16     6    32 1   
    17     7     8 1   
    18     7    19 ar  
    19     7    20 ar  
    20     8    23 1   
    21     8    24 1   
    22     8    25 1   
    23     9    26 1   
    24     9    33 1   
    25     9    34 1   
    26     9    35 1   
    27    10    11 ar  
    28    10    21 ar  
    29    10    50 1   
    30    11    27 ar  
    31    11    36 1   
    32    12    27 ar  
    33    12    28 1   
    34    13    14 ar  
    35    13    37 1   
    36    14    38 1   
    37    15    39 1   
    38    16    40 1   
    39    16    41 1   
    40    16    42 1   
    41    17    30 2   
    42    17    49 1   
    43    18    19 ar  
    44    18    22 1   
    45    19    43 1   
    46    20    44 1   
    47    21    45 1   
    48    26    46 1   
    49    26    50 1   
    50    28    47 1   
    51    29    50 2   
    52    48    49 1   
@<TRIPOS>SUBSTRUCTURE
     1 UE9         1 TEMP              0 ****  ****    0 ROOT
