@<TRIPOS>MOLECULE
UEA
   24    24     1     0     0
SMALL
bcc


@<TRIPOS>ATOM
      1 O2         166.5040   -61.6580   164.6060 oh         1 UEA      -0.572800
      2 C2         165.5740   -62.6320   164.2860 c5         1 UEA       0.358600
      3 C3         164.4480   -62.5930   165.3250 c5         1 UEA       0.135100
      4 C4         163.2160   -62.9500   164.5100 c5         1 UEA       0.081100
      5 C5         163.5180   -62.2650   163.1700 c5         1 UEA       0.119100
      6 O5         164.9330   -62.3210   163.0570 os         1 UEA      -0.444600
      7 C6         163.0310   -60.8270   163.0540 c3         1 UEA       0.120400
      8 O6         161.6510   -60.8670   162.7660 oh         1 UEA      -0.610800
      9 O4         162.0640   -62.5230   165.1810 oh         1 UEA      -0.588800
     10 O3         164.7090   -63.4400   166.4050 oh         1 UEA      -0.562800
     11 C1         166.2320   -63.9980   164.0770 c3         1 UEA       0.110400
     12 O1         167.1390   -64.2780   165.1120 oh         1 UEA      -0.571800
     13 H3         164.3440   -61.5490   165.6610 h1         1 UEA       0.068700
     14 H11        165.4510   -64.7650   163.9890 h1         1 UEA       0.031700
     15 H12        166.7400   -63.9600   163.1030 h1         1 UEA       0.031700
     16 H4         163.1980   -64.0380   164.3520 h1         1 UEA       0.052700
     17 HO3        164.0270   -63.2930   167.0680 ho         1 UEA       0.418000
     18 H5         163.0900   -62.8260   162.3320 h1         1 UEA       0.078700
     19 HO4        161.3010   -62.6670   164.6130 ho         1 UEA       0.425000
     20 H61        163.2410   -60.2640   163.9730 h1         1 UEA       0.038700
     21 H62        163.5960   -60.3430   162.2470 h1         1 UEA       0.038700
     22 HO6        161.3130   -59.9670   162.7860 ho         1 UEA       0.413000
     23 HO2        167.3280   -61.8200   164.1320 ho         1 UEA       0.424000
     24 HO1        167.6960   -65.0050   164.8200 ho         1 UEA       0.404000
@<TRIPOS>BOND
     1     1     2 1   
     2     1    23 1   
     3     2     3 1   
     4     2     6 1   
     5     2    11 1   
     6     3     4 1   
     7     3    10 1   
     8     3    13 1   
     9     4     5 1   
    10     4     9 1   
    11     4    16 1   
    12     5     6 1   
    13     5     7 1   
    14     5    18 1   
    15     7     8 1   
    16     7    20 1   
    17     7    21 1   
    18     8    22 1   
    19     9    19 1   
    20    10    17 1   
    21    11    12 1   
    22    11    14 1   
    23    11    15 1   
    24    12    24 1   
@<TRIPOS>SUBSTRUCTURE
     1 UEA         1 TEMP              0 ****  ****    0 ROOT
