@<TRIPOS>MOLECULE
UEA
   24    24     1     0     0
SMALL
No Charge or Current Charge


@<TRIPOS>ATOM
      1 O2         166.3480   -61.5540   164.2260 oh         1 UEA      -0.695000
      2 C2         165.4840   -62.6670   164.1030 c5         1 UEA       0.405000
      3 C3         164.3410   -62.6630   165.2080 c5         1 UEA       0.158300
      4 C4         163.1350   -63.1850   164.3780 c5         1 UEA       0.104300
      5 C5         163.3810   -62.3910   163.0550 c5         1 UEA       0.142300
      6 O5         164.7980   -62.5980   162.8290 os         1 UEA      -0.491000
      7 C6         163.0500   -60.8620   163.0940 c3         1 UEA       0.143600
      8 O6         161.7090   -60.6340   163.5790 oh         1 UEA      -0.733000
      9 O4         161.8700   -62.9020   164.9920 oh         1 UEA      -0.711000
     10 O3         164.5770   -63.4390   166.3990 oh         1 UEA      -0.685000
     11 C1         166.4240   -63.9220   164.0890 c3         1 UEA       0.133600
     12 O1         167.5460   -63.7380   164.9900 oh         1 UEA      -0.694000
     13 H3         164.1520   -61.6230   165.5090 h1         1 UEA       0.068700
     14 H11        165.8420   -64.8090   164.3720 h1         1 UEA       0.031700
     15 H12        166.7880   -64.0830   163.0650 h1         1 UEA       0.031700
     16 H4         163.2340   -64.2650   164.1930 h1         1 UEA       0.052700
     17 HO3        163.6950   -63.5500   166.8270 ho         1 UEA       0.517000
     18 H5         162.8230   -62.8380   162.2220 h1         1 UEA       0.078700
     19 HO4        161.5900   -62.0310   164.5830 ho         1 UEA       0.524000
     20 H61        163.7760   -60.3360   163.7280 h1         1 UEA       0.038700
     21 H62        163.1590   -60.4640   162.0760 h1         1 UEA       0.038700
     22 HO6        161.4910   -59.6880   163.3910 ho         1 UEA       0.512000
     23 HO2        167.1310   -61.9940   164.6460 ho         1 UEA       0.523000
     24 HO1        167.9990   -64.6120   165.0730 ho         1 UEA       0.503000
@<TRIPOS>BOND
     1     1     2 1   
     2     1    23 1   
     3     2     3 1   
     4     2     6 1   
     5     2    11 1   
     6     3     4 1   
     7     3    10 1   
     8     3    13 1   
     9     4     5 1   
    10     4     9 1   
    11     4    16 1   
    12     5     6 1   
    13     5     7 1   
    14     5    18 1   
    15     7     8 1   
    16     7    20 1   
    17     7    21 1   
    18     8    22 1   
    19     9    19 1   
    20    10    17 1   
    21    11    12 1   
    22    11    14 1   
    23    11    15 1   
    24    12    24 1   
@<TRIPOS>SUBSTRUCTURE
     1 UEA         1 TEMP              0 ****  ****    0 ROOT
