@<TRIPOS>MOLECULE
UEB
   44    47     1     0     0
SMALL
No Charge or Current Charge


@<TRIPOS>ATOM
      1 C2          -2.1380    21.8700    14.7350 c3         1 UEB       0.259100
      2 C7          -5.8110    23.1690    12.7940 ca         1 UEB      -0.108000
      3 C8          -5.1560    24.0220    13.6970 ca         1 UEB      -0.113000
      4 C9          -3.9660    23.6080    14.3220 ca         1 UEB      -0.096000
      5 C10         -2.2290    21.9810    16.2720 ca         1 UEB      -0.077300
      6 C11         -1.6570    23.0920    16.9390 ca         1 UEB      -0.074000
      7 C12         -1.7390    23.2190    18.3330 ca         1 UEB      -0.110000
      8 C13         -2.4010    22.2420    19.0860 ca         1 UEB      -0.102000
      9 C14         -2.9870    21.1420    18.4440 ca         1 UEB      -0.098000
     10 C15         -2.9120    20.9940    17.0380 ca         1 UEB      -0.092300
     11 C16         -3.5810    19.7930    16.3450 c3         1 UEB       0.144300
     12 C21         -5.2840    16.7530    18.9480 c          1 UEB       0.611600
     13 C27         -1.9860    17.6760    17.7090 cc         1 UEB      -0.205000
     14 N1          -0.9730    22.5680    14.1670 n8         1 UEB      -0.999200
     15 C4          -3.4220    22.3350    14.0500 ca         1 UEB      -0.092300
     16 C5          -4.0850    21.4860    13.1390 ca         1 UEB      -0.096000
     17 C6          -5.2750    21.9010    12.5150 ca         1 UEB      -0.113000
     18 N17         -4.1820    18.7700    17.2360 n          1 UEB      -0.200000
     19 C18         -5.5570    18.7600    17.5030 cs         1 UEB       0.455400
     20 S19         -6.6800    19.8510    16.9110 s          1 UEB      -0.590400
     21 N20         -5.9900    17.7500    18.3320 ns         1 UEB      -0.409500
     22 C23         -3.8560    16.8310    18.6410 cd         1 UEB      -0.300600
     23 N24         -2.7530    16.0610    19.0410 na         1 UEB      -0.056000
     24 C26         -1.5870    16.5950    18.4580 cd         1 UEB      -0.131000
     25 C28         -3.3820    17.7970    17.8320 cc         1 UEB       0.027600
     26 H1          -1.9820    20.8140    14.4820 h1         1 UEB       0.020700
     27 H2          -6.7320    23.4900    12.3110 ha         1 UEB       0.111000
     28 H3          -5.5690    25.0050    13.9130 ha         1 UEB       0.113000
     29 H4          -3.4660    24.2770    15.0170 ha         1 UEB       0.122500
     30 H5          -1.1490    23.8720    16.3770 ha         1 UEB       0.130000
     31 H6          -1.2920    24.0780    18.8280 ha         1 UEB       0.116000
     32 H7          -2.4680    22.3410    20.1670 ha         1 UEB       0.114000
     33 H8          -3.5030    20.4080    19.0570 ha         1 UEB       0.112000
     34 H9          -4.3460    20.1690    15.6570 h1         1 UEB       0.082700
     35 H10         -2.8410    19.2850    15.7160 h1         1 UEB       0.082700
     36 H11         -1.3370    18.3270    17.1310 ha         1 UEB       0.152000
     37 H12         -0.1220    22.1300    14.5350 hn         1 UEB       0.400000
     38 H13         -0.9380    22.3690    13.1620 hn         1 UEB       0.400000
     39 H15         -3.6810    20.5010    12.9140 ha         1 UEB       0.122500
     40 H16         -5.7810    21.2390    11.8150 ha         1 UEB       0.113000
     41 H17         -6.9800    17.7380    18.5220 hn         1 UEB       0.363500
     42 H18         -2.7870    15.2520    19.6580 hn         1 UEB       0.374000
     43 H19         -0.6000    16.1760    18.6230 h4         1 UEB       0.158000
     44 O22         -5.7990    15.9130    19.6670 o          1 UEB      -0.521000
@<TRIPOS>BOND
     1     1     5 1   
     2     1    14 1   
     3     1    15 1   
     4     1    26 1   
     5     2     3 ar  
     6     2    17 ar  
     7     2    27 1   
     8     3     4 ar  
     9     3    28 1   
    10     4    15 ar  
    11     4    29 1   
    12     5     6 ar  
    13     5    10 ar  
    14     6     7 ar  
    15     6    30 1   
    16     7     8 ar  
    17     7    31 1   
    18     8     9 ar  
    19     8    32 1   
    20     9    10 ar  
    21     9    33 1   
    22    10    11 1   
    23    11    18 1   
    24    11    34 1   
    25    11    35 1   
    26    12    21 1   
    27    12    22 1   
    28    12    44 2   
    29    13    24 2   
    30    13    25 1   
    31    13    36 1   
    32    14    37 1   
    33    14    38 1   
    34    15    16 ar  
    35    16    17 ar  
    36    16    39 1   
    37    17    40 1   
    38    18    19 1   
    39    18    25 1   
    40    19    20 2   
    41    19    21 1   
    42    21    41 1   
    43    22    23 1   
    44    22    25 2   
    45    23    24 1   
    46    23    42 1   
    47    24    43 1   
@<TRIPOS>SUBSTRUCTURE
     1 UEB         1 TEMP              0 ****  ****    0 ROOT
