@<TRIPOS>MOLECULE
UEB
   44    47     1     0     0
SMALL
abcg2


@<TRIPOS>ATOM
      1 C2          -2.4940    21.6990    14.6820 c3         1 UEB       0.259100
      2 C7          -5.3730    24.2040    12.6620 ca         1 UEB      -0.108000
      3 C8          -4.0560    24.6240    12.7810 ca         1 UEB      -0.113000
      4 C9          -3.1180    23.8230    13.4220 ca         1 UEB      -0.096000
      5 C10         -2.7300    21.8070    16.1810 ca         1 UEB      -0.077300
      6 C11         -2.4590    23.0230    16.8030 ca         1 UEB      -0.074000
      7 C12         -2.6630    23.2010    18.1610 ca         1 UEB      -0.110000
      8 C13         -3.1470    22.1460    18.9200 ca         1 UEB      -0.102000
      9 C14         -3.4160    20.9290    18.3140 ca         1 UEB      -0.098000
     10 C15         -3.2080    20.7400    16.9490 ca         1 UEB      -0.092300
     11 C16         -3.4810    19.3990    16.3000 c3         1 UEB       0.144300
     12 C21         -4.8110    16.4040    19.0940 c          1 UEB       0.611600
     13 C27         -1.6300    17.6540    17.9040 cc         1 UEB      -0.205000
     14 N1          -1.1220    22.0780    14.3840 n8         1 UEB      -0.999200
     15 C4          -3.4840    22.5900    13.9500 ca         1 UEB      -0.092300
     16 C5          -4.8080    22.1740    13.8220 ca         1 UEB      -0.096000
     17 C6          -5.7470    22.9720    13.1870 ca         1 UEB      -0.113000
     18 N17         -3.9600    18.3910    17.2270 n          1 UEB      -0.200000
     19 C18         -5.2830    18.2180    17.4490 cs         1 UEB       0.455400
     20 S19         -6.4780    19.1240    16.7090 s          1 UEB      -0.590400
     21 N20         -5.6300    17.2440    18.3380 ns         1 UEB      -0.409500
     22 C23         -3.4390    16.6690    18.8220 cd         1 UEB      -0.300600
     23 N24         -2.3200    16.1000    19.3470 na         1 UEB      -0.056000
     24 C26         -1.2350    16.6840    18.8050 cd         1 UEB      -0.131000
     25 C28         -3.0370    17.6340    17.9210 cc         1 UEB       0.027600
     26 H1          -2.7070    20.6730    14.3590 h1         1 UEB       0.020700
     27 H2          -6.1030    24.8280    12.1630 ha         1 UEB       0.111000
     28 H3          -3.7540    25.5810    12.3740 ha         1 UEB       0.113000
     29 H4          -2.0940    24.1600    13.5090 ha         1 UEB       0.122500
     30 H5          -2.0860    23.8480    16.2080 ha         1 UEB       0.130000
     31 H6          -2.4480    24.1560    18.6230 ha         1 UEB       0.116000
     32 H7          -3.3190    22.2660    19.9820 ha         1 UEB       0.114000
     33 H8          -3.7880    20.1210    18.9300 ha         1 UEB       0.112000
     34 H9          -4.2230    19.4920    15.5110 h1         1 UEB       0.082700
     35 H10         -2.5750    19.0080    15.8340 h1         1 UEB       0.082700
     36 H11         -0.9750    18.2870    17.3280 ha         1 UEB       0.152000
     37 H12         -0.4920    21.4710    14.8940 hn         1 UEB       0.400000
     38 H13         -0.9360    21.9160    13.4010 hn         1 UEB       0.400000
     39 H15         -5.1130    21.2150    14.2270 ha         1 UEB       0.122500
     40 H16         -6.7710    22.6310    13.0980 ha         1 UEB       0.113000
     41 H17         -6.6260    17.1330    18.4780 hn         1 UEB       0.363500
     42 H18         -2.3070    15.3630    20.0350 hn         1 UEB       0.374000
     43 H19         -0.2400    16.3810    19.0870 h4         1 UEB       0.158000
     44 O22         -5.2780    15.5860    19.8630 o          1 UEB      -0.521000
@<TRIPOS>BOND
     1     1     5 1   
     2     1    14 1   
     3     1    15 1   
     4     1    26 1   
     5     2     3 ar  
     6     2    17 ar  
     7     2    27 1   
     8     3     4 ar  
     9     3    28 1   
    10     4    15 ar  
    11     4    29 1   
    12     5     6 ar  
    13     5    10 ar  
    14     6     7 ar  
    15     6    30 1   
    16     7     8 ar  
    17     7    31 1   
    18     8     9 ar  
    19     8    32 1   
    20     9    10 ar  
    21     9    33 1   
    22    10    11 1   
    23    11    18 1   
    24    11    34 1   
    25    11    35 1   
    26    12    21 1   
    27    12    22 1   
    28    12    44 2   
    29    13    24 2   
    30    13    25 1   
    31    13    36 1   
    32    14    37 1   
    33    14    38 1   
    34    15    16 ar  
    35    16    17 ar  
    36    16    39 1   
    37    17    40 1   
    38    18    19 1   
    39    18    25 1   
    40    19    20 2   
    41    19    21 1   
    42    21    41 1   
    43    22    23 1   
    44    22    25 2   
    45    23    24 1   
    46    23    42 1   
    47    24    43 1   
@<TRIPOS>SUBSTRUCTURE
     1 UEB         1 TEMP              0 ****  ****    0 ROOT
