@<TRIPOS>MOLECULE
UEC
  101   105     1     0     0
SMALL
No Charge or Current Charge


@<TRIPOS>ATOM
      1 N1         212.4750   212.3010   203.9330 ns         1 UEC      -0.515900
      2 N3         212.3950   211.1480   199.5620 ns         1 UEC      -0.513900
      3 C4         212.7720   213.8270   207.2050 ce         1 UEC      -0.151000
      4 C5         213.7570   214.5030   208.0750 ce         1 UEC      -0.068200
      5 C6         214.8590   215.3030   207.3840 c3         1 UEC      -0.060900
      6 C7         213.6430   214.3890   209.4240 c2         1 UEC      -0.205200
      7 C8         214.5470   214.9430   210.5140 c3         1 UEC       0.210500
      8 C10        216.5200   213.3900   209.9080 c3         1 UEC       0.190300
      9 C13        218.3250   210.6630   207.2030 cc         1 UEC       0.185500
     10 C15        213.2210   210.4220   202.6420 ce         1 UEC      -0.316200
     11 C17        214.1310   208.5050   201.1680 c3         1 UEC      -0.045500
     12 C20        211.0650   211.7420   199.3810 c3         1 UEC       0.085000
     13 C21        210.1390   211.4610   200.5810 c3         1 UEC       0.052600
     14 C22        207.1670   213.4500   200.5480 cc         1 UEC       0.249500
     15 C24        206.7930   215.7220   201.5960 ca         1 UEC      -0.149000
     16 C26        204.2050   215.8140   200.6840 ca         1 UEC       0.330900
     17 C28        208.4610   213.3470   200.9540 cd         1 UEC      -0.189000
     18 C1         212.4470   210.9320   203.8060 c          1 UEC       0.600300
     19 O1         211.8400   210.2040   204.5740 o          1 UEC      -0.585100
     20 C2         211.7950   213.0620   204.9810 c3         1 UEC       0.142200
     21 N2         217.6720   211.6610   207.8900 nc         1 UEC      -0.664000
     22 O2         218.7990   210.3610   209.3760 os         1 UEC      -0.267000
     23 C3         212.8110   213.7660   205.8520 c2         1 UEC      -0.244200
     24 O3         213.7270   215.3420   211.6120 oh         1 UEC      -0.658000
     25 N4         208.8310   212.1160   200.4580 na         1 UEC       0.112800
     26 O4         211.8250   208.9830   199.1460 o          1 UEC      -0.584100
     27 N5         207.7860   211.5270   199.7860 nd         1 UEC      -0.179800
     28 O5         216.3290   209.2340   201.9710 os         1 UEC      -0.471100
     29 N6         206.7690   212.3510   199.8460 nc         1 UEC      -0.344000
     30 N7         204.6620   216.8640   201.4030 nb         1 UEC      -0.661000
     31 N8         217.6530   211.2390   204.8500 n          1 UEC      -0.390800
     32 C9         215.5580   213.8840   211.0120 c3         1 UEC      -0.134400
     33 C11        217.3760   212.1690   210.3210 c3         1 UEC      -0.120700
     34 C12        217.9940   211.4430   209.1550 cd         1 UEC       0.447300
     35 C14        218.9890   209.8870   208.1110 cd         1 UEC       0.178900
     36 C16        213.3540   209.1070   202.3380 c2         1 UEC      -0.115200
     37 C18        214.0920   209.3970   199.8870 c3         1 UEC      -0.149400
     38 C19        212.6630   209.7970   199.5030 c          1 UEC       0.590100
     39 C23        206.3250   214.6200   200.8460 ca         1 UEC      -0.064500
     40 C25        205.9380   216.8090   201.8470 ca         1 UEC       0.330900
     41 C27        204.9920   214.6880   200.3880 ca         1 UEC      -0.149000
     42 C29        215.5740   208.0600   201.5930 c3         1 UEC       0.181300
     43 C30        216.4160   207.3140   200.5060 c3         1 UEC      -0.064700
     44 C31        217.8190   206.9240   201.0390 c3         1 UEC      -0.092100
     45 C32        215.7030   206.0580   199.9420 c3         1 UEC      -0.092100
     46 C33        216.4150   209.5860   203.2990 c          1 UEC       0.585100
     47 C34        217.2930   210.8670   203.4500 c5         1 UEC       0.054700
     48 C35        216.4600   212.1020   202.9930 c5         1 UEC      -0.080400
     49 C36        217.1320   213.2540   203.7700 c5         1 UEC      -0.102400
     50 C37        217.2700   212.6310   205.1800 c5         1 UEC       0.118000
     51 C38        218.3140   210.3390   205.7300 c          1 UEC       0.557600
     52 F1         217.3420   214.4080   209.5500 f          1 UEC      -0.280000
     53 H45        213.0050   212.8120   203.2410 hn         1 UEC       0.298500
     54 H46        213.1650   211.7550   199.8170 hn         1 UEC       0.310500
     55 H4         211.9520   213.3270   207.7240 ha         1 UEC       0.180000
     56 H6         215.4620   215.9020   208.0720 hc         1 UEC       0.044033
     57 H5         215.5490   214.6400   206.8490 hc         1 UEC       0.044033
     58 H7         214.4380   216.0050   206.6540 hc         1 UEC       0.044033
     59 H8         212.8240   213.8010   209.8380 ha         1 UEC       0.187000
     60 H9         215.1010   215.8160   210.1460 h1         1 UEC       0.049700
     61 H12        215.9170   213.1100   209.0340 h1         1 UEC       0.089700
     62 H16        213.6990   211.1780   202.0280 ha         1 UEC       0.157000
     63 H18        213.5950   207.5840   200.9080 hc         1 UEC       0.096700
     64 H22        211.1790   212.8270   199.2550 h1         1 UEC       0.075700
     65 H21        210.6110   211.3420   198.4640 h1         1 UEC       0.075700
     66 H23        209.9830   210.3800   200.6820 h1         1 UEC       0.076200
     67 H24        210.6180   211.8180   201.5010 h1         1 UEC       0.076200
     68 H27        203.1750   215.8770   200.3350 h4         1 UEC       0.019600
     69 H29        209.1140   214.0000   201.5160 h4         1 UEC       0.164000
     70 H2         211.1360   213.8010   204.5060 h1         1 UEC       0.062700
     71 H1         211.1680   212.3950   205.5880 h1         1 UEC       0.062700
     72 H3         213.6110   214.2420   205.2860 ha         1 UEC       0.164000
     73 H47        214.3200   215.7660   212.2710 ho         1 UEC       0.442000
     74 H11        214.9990   213.0280   211.4090 hc         1 UEC       0.061700
     75 H10        216.1470   214.2930   211.8420 hc         1 UEC       0.061700
     76 H14        216.7440   211.4590   210.8650 hc         1 UEC       0.082200
     77 H13        218.1570   212.4890   211.0190 hc         1 UEC       0.082200
     78 H15        219.5960   209.0000   207.9850 h4         1 UEC       0.080100
     79 H17        212.8750   208.3550   202.9720 ha         1 UEC       0.213000
     80 H20        214.5040   208.8300   199.0450 hc         1 UEC       0.068200
     81 H19        214.7080   210.2900   200.0390 hc         1 UEC       0.068200
     82 H26        206.2860   217.6650   202.4250 h4         1 UEC       0.019600
     83 H28        204.5580   213.8800   199.8050 ha         1 UEC       0.128500
     84 H30        215.4760   207.3630   202.4370 h1         1 UEC       0.082700
     85 H31        216.5800   208.0020   199.6680 hc         1 UEC       0.053700
     86 H34        218.3910   207.8100   201.3410 hc         1 UEC       0.042033
     87 H33        217.7370   206.2570   201.9050 hc         1 UEC       0.042033
     88 H32        218.4000   206.4080   200.2640 hc         1 UEC       0.042033
     89 H36        214.7880   206.3250   199.4010 hc         1 UEC       0.042033
     90 H35        216.3530   205.5290   199.2340 hc         1 UEC       0.042033
     91 H37        215.4400   205.3620   200.7470 hc         1 UEC       0.042033
     92 H38        218.1940   210.7420   202.8360 h1         1 UEC       0.091700
     93 H39        216.4760   212.2450   201.9060 hc         1 UEC       0.056700
     94 H40        215.4130   212.0120   203.3010 hc         1 UEC       0.056700
     95 H42        218.1140   213.5000   203.3470 hc         1 UEC       0.055200
     96 H41        216.5340   214.1720   203.7750 hc         1 UEC       0.055200
     97 H43        218.0330   213.1540   205.7720 h1         1 UEC       0.068700
     98 H44        216.3160   212.6540   205.7260 h1         1 UEC       0.068700
     99 O6         218.8420   209.3270   205.2780 o          1 UEC      -0.608100
    100 O7         215.8860   208.9600   204.2110 o          1 UEC      -0.446000
    101 H25        207.8040   215.7550   201.9900 ha         1 UEC       0.128500
@<TRIPOS>BOND
     1     1    18 1   
     2     1    20 1   
     3     1    53 1   
     4     2    12 1   
     5     2    38 1   
     6     2    54 1   
     7     3     4 1   
     8     3    23 2   
     9     3    55 1   
    10     4     5 1   
    11     4     6 2   
    12     5    56 1   
    13     5    57 1   
    14     5    58 1   
    15     6     7 1   
    16     6    59 1   
    17     7    24 1   
    18     7    32 1   
    19     7    60 1   
    20     8    32 1   
    21     8    33 1   
    22     8    52 1   
    23     8    61 1   
    24     9    21 1   
    25     9    35 2   
    26     9    51 1   
    27    10    18 1   
    28    10    36 2   
    29    10    62 1   
    30    11    36 1   
    31    11    37 1   
    32    11    42 1   
    33    11    63 1   
    34    12    13 1   
    35    12    64 1   
    36    12    65 1   
    37    13    25 1   
    38    13    66 1   
    39    13    67 1   
    40    14    17 2   
    41    14    29 1   
    42    14    39 1   
    43    15    39 ar  
    44    15    40 ar  
    45    15   101 1   
    46    16    30 ar  
    47    16    41 ar  
    48    16    68 1   
    49    17    25 1   
    50    17    69 1   
    51    18    19 2   
    52    20    23 1   
    53    20    70 1   
    54    20    71 1   
    55    21    34 2   
    56    22    34 1   
    57    22    35 1   
    58    23    72 1   
    59    24    73 1   
    60    25    27 1   
    61    26    38 2   
    62    27    29 2   
    63    28    42 1   
    64    28    46 1   
    65    30    40 ar  
    66    31    47 1   
    67    31    50 1   
    68    31    51 1   
    69    32    74 1   
    70    32    75 1   
    71    33    34 1   
    72    33    76 1   
    73    33    77 1   
    74    35    78 1   
    75    36    79 1   
    76    37    38 1   
    77    37    80 1   
    78    37    81 1   
    79    39    41 ar  
    80    40    82 1   
    81    41    83 1   
    82    42    43 1   
    83    42    84 1   
    84    43    44 1   
    85    43    45 1   
    86    43    85 1   
    87    44    86 1   
    88    44    87 1   
    89    44    88 1   
    90    45    89 1   
    91    45    90 1   
    92    45    91 1   
    93    46    47 1   
    94    46   100 2   
    95    47    48 1   
    96    47    92 1   
    97    48    49 1   
    98    48    93 1   
    99    48    94 1   
   100    49    50 1   
   101    49    95 1   
   102    49    96 1   
   103    50    97 1   
   104    50    98 1   
   105    51    99 2   
@<TRIPOS>SUBSTRUCTURE
     1 UEC         1 TEMP              0 ****  ****    0 ROOT
