@<TRIPOS>MOLECULE
UEC
  101   105     1     0     0
SMALL
abcg2


@<TRIPOS>ATOM
      1 N1         212.1410   212.1470   204.3540 ns         1 UEC      -0.515900
      2 N3         212.2450   211.1780   199.6780 ns         1 UEC      -0.513900
      3 C4         212.8840   213.3930   207.6380 ce         1 UEC      -0.151000
      4 C5         213.8780   214.0990   208.4490 ce         1 UEC      -0.068200
      5 C6         214.7980   215.0570   207.7440 c3         1 UEC      -0.060900
      6 C7         213.9240   213.8420   209.7670 c2         1 UEC      -0.205200
      7 C8         214.8830   214.3870   210.7780 c3         1 UEC       0.210500
      8 C10        216.8530   213.0230   209.9400 c3         1 UEC       0.190300
      9 C13        218.8240   210.8930   206.8600 cc         1 UEC       0.185500
     10 C15        213.0610   210.4120   203.0150 ce         1 UEC      -0.316200
     11 C17        214.0290   208.6130   201.5220 c3         1 UEC      -0.045500
     12 C20        210.9100   211.6870   199.4470 c3         1 UEC       0.085000
     13 C21        210.2210   212.0090   200.7790 c3         1 UEC       0.052600
     14 C22        207.1330   213.7480   200.1940 cc         1 UEC       0.249500
     15 C24        206.5720   216.1580   199.8800 ca         1 UEC      -0.149000
     16 C26        203.9280   215.6070   199.6300 ca         1 UEC       0.330900
     17 C28        208.4980   213.8110   200.4060 cd         1 UEC      -0.189000
     18 C1         212.5480   210.8580   204.3350 c          1 UEC       0.600300
     19 O1         212.4930   210.1260   205.3270 o          1 UEC      -0.585100
     20 C2         211.6370   212.8180   205.5450 c3         1 UEC       0.142200
     21 N2         217.8700   211.4070   207.7340 nc         1 UEC      -0.664000
     22 O2         219.7300   211.0020   208.8590 os         1 UEC      -0.267000
     23 C3         212.7130   213.5240   206.3190 c2         1 UEC      -0.244200
     24 O3         214.1150   214.6980   211.9530 oh         1 UEC      -0.658000
     25 N4         208.8800   212.5320   200.5730 na         1 UEC       0.112800
     26 O4         211.6190   209.0180   199.9350 o          1 UEC      -0.584100
     27 N5         207.8270   211.7030   200.4660 nd         1 UEC      -0.179800
     28 O5         216.2750   209.3320   202.1040 os         1 UEC      -0.471100
     29 N6         206.7740   212.4320   200.2420 nc         1 UEC      -0.344000
     30 N7         204.3080   216.8870   199.5440 nb         1 UEC      -0.661000
     31 N8         217.6140   211.3290   204.8070 n          1 UEC      -0.390800
     32 C9         215.9780   213.3620   211.1230 c3         1 UEC      -0.134400
     33 C11        217.8560   211.9080   210.1780 c3         1 UEC      -0.120700
     34 C12        218.4430   211.4520   208.8890 cd         1 UEC       0.447300
     35 C14        219.9550   210.6400   207.5610 cd         1 UEC       0.178900
     36 C16        213.4440   209.1590   202.7910 c2         1 UEC      -0.115200
     37 C18        213.9330   209.5540   200.3180 c3         1 UEC      -0.149400
     38 C19        212.4940   209.8820   199.9690 c          1 UEC       0.590100
     39 C23        206.1710   214.8220   199.9700 ca         1 UEC      -0.064500
     40 C25        205.6150   217.1390   199.6700 ca         1 UEC       0.330900
     41 C27        204.8060   214.5550   199.8390 ca         1 UEC      -0.149000
     42 C29        215.4770   208.1520   201.7930 c3         1 UEC       0.181300
     43 C30        216.1860   207.4340   200.6440 c3         1 UEC      -0.064700
     44 C31        217.5710   206.9630   201.0970 c3         1 UEC      -0.092100
     45 C32        215.3590   206.2550   200.1290 c3         1 UEC      -0.092100
     46 C33        216.5060   209.6540   203.3800 c          1 UEC       0.585100
     47 C34        217.2300   210.9900   203.4420 c5         1 UEC       0.054700
     48 C35        216.3100   212.1500   203.0000 c5         1 UEC      -0.080400
     49 C36        216.7030   213.2970   203.9310 c5         1 UEC      -0.102400
     50 C37        216.9840   212.5850   205.2500 c5         1 UEC       0.118000
     51 C38        218.5790   210.6190   205.4260 c          1 UEC       0.557600
     52 F1         217.5870   214.1840   209.5680 f          1 UEC      -0.280000
     53 H45        212.2320   212.6890   203.5100 hn         1 UEC       0.298500
     54 H46        212.9920   211.8460   199.7870 hn         1 UEC       0.310500
     55 H4         212.2340   212.7100   208.1800 ha         1 UEC       0.180000
     56 H6         215.4650   215.5740   208.4280 hc         1 UEC       0.044033
     57 H5         215.4140   214.5270   207.0130 hc         1 UEC       0.044033
     58 H7         214.2230   215.8040   207.1910 hc         1 UEC       0.044033
     59 H8         213.2230   213.1180   210.1740 ha         1 UEC       0.187000
     60 H9         215.3590   215.2980   210.4120 h1         1 UEC       0.049700
     61 H12        216.2380   212.7790   209.0750 h1         1 UEC       0.089700
     62 H16        213.1220   211.1680   202.2440 ha         1 UEC       0.157000
     63 H18        213.4690   207.7040   201.2890 hc         1 UEC       0.096700
     64 H22        210.9790   212.5860   198.8350 h1         1 UEC       0.075700
     65 H21        210.3330   210.9400   198.9050 h1         1 UEC       0.075700
     66 H23        210.1350   211.1120   201.3880 h1         1 UEC       0.076200
     67 H24        210.7880   212.7560   201.3310 h1         1 UEC       0.076200
     68 H27        202.8660   215.4110   199.5270 h4         1 UEC       0.019600
     69 H29        209.1940   214.6290   200.4580 h4         1 UEC       0.164000
     70 H2         210.8880   213.5400   205.2100 h1         1 UEC       0.062700
     71 H1         211.1370   212.0810   206.1710 h1         1 UEC       0.062700
     72 H3         213.3480   214.1880   205.7410 ha         1 UEC       0.164000
     73 H47        214.7200   215.0490   212.6200 ho         1 UEC       0.442000
     74 H11        215.4990   212.4440   211.4730 hc         1 UEC       0.061700
     75 H10        216.5960   213.7490   211.9390 hc         1 UEC       0.061700
     76 H14        217.3450   211.0670   210.6560 hc         1 UEC       0.082200
     77 H13        218.6430   212.2400   210.8560 hc         1 UEC       0.082200
     78 H15        220.9270   210.2500   207.3170 h4         1 UEC       0.080100
     79 H17        213.3630   208.4510   203.6090 ha         1 UEC       0.213000
     80 H20        214.3610   209.0650   199.4420 hc         1 UEC       0.068200
     81 H19        214.5090   210.4630   200.4900 hc         1 UEC       0.068200
     82 H26        205.9170   218.1780   199.5990 h4         1 UEC       0.019600
     83 H28        204.4340   213.5420   199.9020 ha         1 UEC       0.128500
     84 H30        215.4740   207.5060   202.6710 h1         1 UEC       0.082700
     85 H31        216.3200   208.1500   199.8290 hc         1 UEC       0.053700
     86 H34        218.1790   207.7920   201.4590 hc         1 UEC       0.042033
     87 H33        217.4820   206.2270   201.9010 hc         1 UEC       0.042033
     88 H32        218.0990   206.4920   200.2660 hc         1 UEC       0.042033
     89 H36        214.4240   206.5750   199.6680 hc         1 UEC       0.042033
     90 H35        215.9280   205.7050   199.3780 hc         1 UEC       0.042033
     91 H37        215.1190   205.5630   200.9410 hc         1 UEC       0.042033
     92 H38        218.1120   210.9220   202.8030 h1         1 UEC       0.091700
     93 H39        216.4350   212.3750   201.9440 hc         1 UEC       0.056700
     94 H40        215.2680   211.8790   203.1680 hc         1 UEC       0.056700
     95 H42        217.6110   213.7870   203.5710 hc         1 UEC       0.055200
     96 H41        215.9190   214.0460   204.0290 hc         1 UEC       0.055200
     97 H43        217.6490   213.1380   205.9060 h1         1 UEC       0.068700
     98 H44        216.0580   212.3790   205.7900 h1         1 UEC       0.068700
     99 O6         219.2290   209.7430   204.8420 o          1 UEC      -0.608100
    100 O7         216.1640   209.0000   204.3350 o          1 UEC      -0.446000
    101 H25        207.6130   216.4390   199.9700 ha         1 UEC       0.128500
@<TRIPOS>BOND
     1     1    18 1   
     2     1    20 1   
     3     1    53 1   
     4     2    12 1   
     5     2    38 1   
     6     2    54 1   
     7     3     4 1   
     8     3    23 2   
     9     3    55 1   
    10     4     5 1   
    11     4     6 2   
    12     5    56 1   
    13     5    57 1   
    14     5    58 1   
    15     6     7 1   
    16     6    59 1   
    17     7    24 1   
    18     7    32 1   
    19     7    60 1   
    20     8    32 1   
    21     8    33 1   
    22     8    52 1   
    23     8    61 1   
    24     9    21 1   
    25     9    35 2   
    26     9    51 1   
    27    10    18 1   
    28    10    36 2   
    29    10    62 1   
    30    11    36 1   
    31    11    37 1   
    32    11    42 1   
    33    11    63 1   
    34    12    13 1   
    35    12    64 1   
    36    12    65 1   
    37    13    25 1   
    38    13    66 1   
    39    13    67 1   
    40    14    17 2   
    41    14    29 1   
    42    14    39 1   
    43    15    39 ar  
    44    15    40 ar  
    45    15   101 1   
    46    16    30 ar  
    47    16    41 ar  
    48    16    68 1   
    49    17    25 1   
    50    17    69 1   
    51    18    19 2   
    52    20    23 1   
    53    20    70 1   
    54    20    71 1   
    55    21    34 2   
    56    22    34 1   
    57    22    35 1   
    58    23    72 1   
    59    24    73 1   
    60    25    27 1   
    61    26    38 2   
    62    27    29 2   
    63    28    42 1   
    64    28    46 1   
    65    30    40 ar  
    66    31    47 1   
    67    31    50 1   
    68    31    51 1   
    69    32    74 1   
    70    32    75 1   
    71    33    34 1   
    72    33    76 1   
    73    33    77 1   
    74    35    78 1   
    75    36    79 1   
    76    37    38 1   
    77    37    80 1   
    78    37    81 1   
    79    39    41 ar  
    80    40    82 1   
    81    41    83 1   
    82    42    43 1   
    83    42    84 1   
    84    43    44 1   
    85    43    45 1   
    86    43    85 1   
    87    44    86 1   
    88    44    87 1   
    89    44    88 1   
    90    45    89 1   
    91    45    90 1   
    92    45    91 1   
    93    46    47 1   
    94    46   100 2   
    95    47    48 1   
    96    47    92 1   
    97    48    49 1   
    98    48    93 1   
    99    48    94 1   
   100    49    50 1   
   101    49    95 1   
   102    49    96 1   
   103    50    97 1   
   104    50    98 1   
   105    51    99 2   
@<TRIPOS>SUBSTRUCTURE
     1 UEC         1 TEMP              0 ****  ****    0 ROOT
