@<TRIPOS>MOLECULE
UED
   60    61     1     0     0
SMALL
No Charge or Current Charge


@<TRIPOS>ATOM
      1 C7         -13.7930   -10.7000    -2.0160 c3         1 UED       0.228900
      2 O8         -14.1010   -12.1060    -2.0310 os         1 UED      -0.451100
      3 C9         -14.5580   -12.6770    -0.8830 c          1 UED       0.634100
      4 O10        -14.8430   -12.0900     0.1490 o          1 UED      -0.536000
      5 C1         -12.5100   -10.4730    -1.2160 ca         1 UED      -0.113300
      6 C2         -11.3060   -11.0850    -1.6180 ca         1 UED      -0.098000
      7 C3         -10.1230   -10.8760    -0.8870 ca         1 UED      -0.111000
      8 C4         -10.1360   -10.0510     0.2500 ca         1 UED      -0.113000
      9 C5         -11.3340    -9.4400     0.6590 ca         1 UED      -0.111000
     10 C6         -12.5170    -9.6500    -0.0710 ca         1 UED      -0.098000
     11 N11        -14.5860   -14.0310    -1.0500 ns         1 UED      -0.473900
     12 C12        -14.8900   -15.0080     0.0160 c3         1 UED       0.044700
     13 C17        -13.6420   -15.8980     0.2700 c          1 UED       0.581100
     14 O18        -12.8030   -16.1370    -0.5890 o          1 UED      -0.606100
     15 C13        -16.1330   -15.8650    -0.3440 c3         1 UED      -0.083400
     16 C14        -17.4550   -15.0740    -0.5560 c3         1 UED      -0.058700
     17 C15        -17.9070   -14.3140     0.7140 c3         1 UED      -0.091100
     18 C16        -18.5790   -16.0070    -1.0610 c3         1 UED      -0.091100
     19 N19        -13.5270   -16.3750     1.5600 ns         1 UED      -0.497900
     20 C20        -12.3400   -17.0560     2.0970 c3         1 UED       0.103700
     21 C21        -12.6560   -18.5430     2.4140 c3         1 UED       0.151600
     22 O22        -11.4720   -19.2520     2.8080 oh         1 UED      -0.656000
     23 C24        -11.7740   -16.2680     3.3090 c3         1 UED      -0.070400
     24 C25        -11.5410   -14.7470     3.0650 c5         1 UED      -0.159700
     25 C26        -10.5720   -14.3930     1.9020 c5         1 UED      -0.089400
     26 C27        -10.2000   -12.9280     2.2570 c5         1 UED       0.098000
     27 N28        -10.1460   -13.0140     3.7150 ns         1 UED      -0.512900
     28 C29        -10.9100   -14.0130     4.2550 c          1 UED       0.565000
     29 O30        -10.8530   -14.3360     5.4310 o          1 UED      -0.567000
     30 H1         -13.6320   -10.3410    -3.0410 h1         1 UED       0.069700
     31 H2         -14.6230   -10.1170    -1.5940 h1         1 UED       0.069700
     32 H3         -11.2880   -11.7250    -2.4980 ha         1 UED       0.119500
     33 H4          -9.1980   -11.3520    -1.2030 ha         1 UED       0.115000
     34 H5          -9.2210    -9.8880     0.8150 ha         1 UED       0.113000
     35 H6         -11.3450    -8.8050     1.5420 ha         1 UED       0.115000
     36 H7         -13.4390    -9.1740     0.2560 ha         1 UED       0.119500
     37 H8         -14.2670   -14.3710    -1.9490 hn         1 UED       0.333500
     38 H9         -15.0850   -14.4700     0.9520 h1         1 UED       0.080700
     39 H10        -16.2900   -16.6100     0.4460 hc         1 UED       0.056200
     40 H11        -15.9070   -16.4310    -1.2570 hc         1 UED       0.056200
     41 H12        -17.2850   -14.3280    -1.3430 hc         1 UED       0.051700
     42 H13        -17.1720   -13.5550     1.0060 hc         1 UED       0.035867
     43 H14        -18.8590   -13.7980     0.5370 hc         1 UED       0.035867
     44 H15        -18.0450   -15.0040     1.5550 hc         1 UED       0.035867
     45 H16        -19.4960   -15.4390    -1.2590 hc         1 UED       0.035867
     46 H17        -18.2830   -16.5030    -1.9930 hc         1 UED       0.035867
     47 H18        -18.8090   -16.7810    -0.3180 hc         1 UED       0.035867
     48 H19        -14.2750   -16.1420     2.2020 hn         1 UED       0.314500
     49 H20        -11.5620   -17.0580     1.3220 h1         1 UED       0.092700
     50 H21        -12.4600   -16.3940     4.1560 hc         1 UED       0.065700
     51 H22        -10.8290   -16.7330     3.6160 hc         1 UED       0.065700
     52 H23        -12.4990   -14.2500     2.8680 hc         1 UED       0.090700
     53 H24        -11.0290   -14.4790     0.9100 hc         1 UED       0.061700
     54 H25         -9.6830   -15.0340     1.9140 hc         1 UED       0.061700
     55 H26         -9.2450   -12.6240     1.8090 h1         1 UED       0.048700
     56 H27        -10.9790   -12.2260     1.9280 h1         1 UED       0.048700
     57 H28         -9.5640   -12.4550     4.3270 hn         1 UED       0.323500
     58 H29        -13.4100   -18.5890     3.2100 h1         1 UED       0.022200
     59 H30        -13.0890   -19.0100     1.5190 h1         1 UED       0.022200
     60 H31        -11.7400   -20.1820     2.9870 ho         1 UED       0.448000
@<TRIPOS>BOND
     1     1     2 1   
     2     1     5 1   
     3     1    30 1   
     4     1    31 1   
     5     2     3 1   
     6     3     4 2   
     7     3    11 1   
     8     5     6 ar  
     9     5    10 ar  
    10     6     7 ar  
    11     6    32 1   
    12     7     8 ar  
    13     7    33 1   
    14     8     9 ar  
    15     8    34 1   
    16     9    10 ar  
    17     9    35 1   
    18    10    36 1   
    19    11    12 1   
    20    11    37 1   
    21    12    13 1   
    22    12    15 1   
    23    12    38 1   
    24    13    14 2   
    25    13    19 1   
    26    15    16 1   
    27    15    39 1   
    28    15    40 1   
    29    16    17 1   
    30    16    18 1   
    31    16    41 1   
    32    17    42 1   
    33    17    43 1   
    34    17    44 1   
    35    18    45 1   
    36    18    46 1   
    37    18    47 1   
    38    19    20 1   
    39    19    48 1   
    40    20    21 1   
    41    20    23 1   
    42    20    49 1   
    43    21    22 1   
    44    21    58 1   
    45    21    59 1   
    46    22    60 1   
    47    23    24 1   
    48    23    50 1   
    49    23    51 1   
    50    24    25 1   
    51    24    28 1   
    52    24    52 1   
    53    25    26 1   
    54    25    53 1   
    55    25    54 1   
    56    26    27 1   
    57    26    55 1   
    58    26    56 1   
    59    27    28 1   
    60    27    57 1   
    61    28    29 2   
@<TRIPOS>SUBSTRUCTURE
     1 UED         1 TEMP              0 ****  ****    0 ROOT
