@<TRIPOS>MOLECULE
UED
   60    61     1     0     0
SMALL
bcc


@<TRIPOS>ATOM
      1 C7         -13.7220   -10.4670    -0.6660 c3         1 UED       0.205700
      2 O8         -14.4180   -11.6450    -1.0360 os         1 UED      -0.427900
      3 C9         -14.5700   -12.5930    -0.1000 c          1 UED       0.750100
      4 O10        -14.2170   -12.4760     1.0530 o          1 UED      -0.585000
      5 C1         -12.2260   -10.6390    -0.6150 ca         1 UED      -0.113300
      6 C2         -11.5750   -11.7530    -1.1320 ca         1 UED      -0.116000
      7 C3         -10.1880   -11.8290    -1.1060 ca         1 UED      -0.129000
      8 C4          -9.4340   -10.7930    -0.5750 ca         1 UED      -0.131000
      9 C5         -10.0800    -9.6790    -0.0540 ca         1 UED      -0.129000
     10 C6         -11.4640    -9.6070    -0.0700 ca         1 UED      -0.116000
     11 N11        -15.1920   -13.6740    -0.6120 ns         1 UED      -0.540900
     12 C12        -15.2660   -14.8950     0.1470 c3         1 UED       0.044700
     13 C17        -13.8630   -15.4730     0.3520 c          1 UED       0.648100
     14 O18        -13.0260   -15.4180    -0.5350 o          1 UED      -0.606100
     15 C13        -16.1280   -15.9220    -0.5860 c3         1 UED      -0.083400
     16 C14        -17.5670   -15.4820    -0.8640 c3         1 UED      -0.058700
     17 C15        -18.2990   -15.0810     0.4120 c3         1 UED      -0.091100
     18 C16        -18.3070   -16.6040    -1.5860 c3         1 UED      -0.091100
     19 N19        -13.6690   -16.0580     1.5440 ns         1 UED      -0.564900
     20 C20        -12.4180   -16.6340     1.9910 c3         1 UED       0.103700
     21 C21        -12.6270   -18.1240     2.2410 c3         1 UED       0.128400
     22 O22        -11.4010   -18.6960     2.6280 oh         1 UED      -0.593800
     23 C24        -11.9040   -15.8940     3.2260 c3         1 UED      -0.070400
     24 C25        -11.7230   -14.4060     2.9790 c5         1 UED      -0.159700
     25 C26        -10.7040   -14.0260     1.9050 c5         1 UED      -0.089400
     26 C27        -10.2260   -12.6410     2.3380 c5         1 UED       0.098000
     27 N28        -10.3890   -12.6980     3.7770 ns         1 UED      -0.579900
     28 C29        -11.2340   -13.6500     4.2040 c          1 UED       0.707500
     29 O30        -11.5630   -13.8560     5.3620 o          1 UED      -0.642500
     30 H1         -13.9790    -9.7390    -1.4370 h1         1 UED       0.069700
     31 H2         -14.0920   -10.0740     0.2830 h1         1 UED       0.069700
     32 H3         -12.1340   -12.5770    -1.5560 ha         1 UED       0.137500
     33 H4          -9.6970   -12.7070    -1.5060 ha         1 UED       0.133000
     34 H5          -8.3540   -10.8560    -0.5590 ha         1 UED       0.131000
     35 H6          -9.5060    -8.8660     0.3720 ha         1 UED       0.133000
     36 H7         -11.9590    -8.7360     0.3440 ha         1 UED       0.137500
     37 H8         -15.2940   -13.7330    -1.6130 hn         1 UED       0.333500
     38 H9         -15.7180   -14.6770     1.1190 h1         1 UED       0.080700
     39 H10        -16.1480   -16.8340     0.0180 hc         1 UED       0.056200
     40 H11        -15.6380   -16.1860    -1.5290 hc         1 UED       0.056200
     41 H12        -17.5470   -14.6140    -1.5320 hc         1 UED       0.051700
     42 H13        -17.8720   -14.1880     0.8710 hc         1 UED       0.035867
     43 H14        -19.3490   -14.8640     0.2060 hc         1 UED       0.035867
     44 H15        -18.2650   -15.8850     1.1520 hc         1 UED       0.035867
     45 H16        -19.3180   -16.2970    -1.8570 hc         1 UED       0.035867
     46 H17        -17.7910   -16.8950    -2.5020 hc         1 UED       0.035867
     47 H18        -18.3870   -17.4920    -0.9540 hc         1 UED       0.035867
     48 H19        -14.4090   -15.9940     2.2260 hn         1 UED       0.314500
     49 H20        -11.7020   -16.5170     1.1750 h1         1 UED       0.092700
     50 H21        -12.6050   -16.0470     4.0540 hc         1 UED       0.065700
     51 H22        -10.9530   -16.3360     3.5300 hc         1 UED       0.065700
     52 H23        -12.6900   -13.9590     2.7170 hc         1 UED       0.090700
     53 H24        -11.1210   -14.0170     0.9010 hc         1 UED       0.061700
     54 H25         -9.8680   -14.7310     1.9180 hc         1 UED       0.061700
     55 H26         -9.1900   -12.4460     2.0670 h1         1 UED       0.048700
     56 H27        -10.8400   -11.8500     1.8960 h1         1 UED       0.048700
     57 H28        -10.0280   -11.9880     4.3950 hn         1 UED       0.323500
     58 H29        -13.3980   -18.2510     3.0130 h1         1 UED       0.022200
     59 H30        -13.0140   -18.5790     1.3210 h1         1 UED       0.022200
     60 H31        -11.5500   -19.6260     2.8180 ho         1 UED       0.409000
@<TRIPOS>BOND
     1     1     2 1   
     2     1     5 1   
     3     1    30 1   
     4     1    31 1   
     5     2     3 1   
     6     3     4 2   
     7     3    11 1   
     8     5     6 ar  
     9     5    10 ar  
    10     6     7 ar  
    11     6    32 1   
    12     7     8 ar  
    13     7    33 1   
    14     8     9 ar  
    15     8    34 1   
    16     9    10 ar  
    17     9    35 1   
    18    10    36 1   
    19    11    12 1   
    20    11    37 1   
    21    12    13 1   
    22    12    15 1   
    23    12    38 1   
    24    13    14 2   
    25    13    19 1   
    26    15    16 1   
    27    15    39 1   
    28    15    40 1   
    29    16    17 1   
    30    16    18 1   
    31    16    41 1   
    32    17    42 1   
    33    17    43 1   
    34    17    44 1   
    35    18    45 1   
    36    18    46 1   
    37    18    47 1   
    38    19    20 1   
    39    19    48 1   
    40    20    21 1   
    41    20    23 1   
    42    20    49 1   
    43    21    22 1   
    44    21    58 1   
    45    21    59 1   
    46    22    60 1   
    47    23    24 1   
    48    23    50 1   
    49    23    51 1   
    50    24    25 1   
    51    24    28 1   
    52    24    52 1   
    53    25    26 1   
    54    25    53 1   
    55    25    54 1   
    56    26    27 1   
    57    26    55 1   
    58    26    56 1   
    59    27    28 1   
    60    27    57 1   
    61    28    29 2   
@<TRIPOS>SUBSTRUCTURE
     1 UED         1 TEMP              0 ****  ****    0 ROOT
