@<TRIPOS>MOLECULE
UEE
   77    82     1     0     0
SMALL
abcg2


@<TRIPOS>ATOM
      1 C10        -42.8820    27.9880    22.0890 c3         1 UEE       0.219100
      2 C13        -43.3270    24.6280    22.6010 cy         1 UEE      -0.106000
      3 C15        -43.3040    22.5950    23.3520 cy         1 UEE      -0.092400
      4 C17        -43.8790    25.7130    21.6650 cy         1 UEE       0.170300
      5 C21        -43.9140    36.1110    24.5590 c6         1 UEE      -0.068400
      6 C22        -43.6490    37.3520    23.6990 c6         1 UEE      -0.105400
      7 C24        -41.4790    36.0970    25.1510 c6         1 UEE       0.181800
      8 C26        -40.8860    38.4750    25.0590 ca         1 UEE       0.403900
      9 C28        -40.1320    39.4660    26.9770 ca         1 UEE       0.190900
     10 C02        -42.9050    35.9790    25.7030 c6         1 UEE       0.139000
     11 C03        -43.0810    34.6670    26.4890 c3         1 UEE       0.086000
     12 C06        -43.6720    31.4860    24.5060 ca         1 UEE      -0.155600
     13 C07        -42.5630    31.4390    23.6570 ca         1 UEE      -0.075500
     14 C08        -42.3090    30.3040    22.9000 ca         1 UEE      -0.109500
     15 C09        -43.1430    29.1880    22.9740 ca         1 UEE      -0.057300
     16 C12        -42.4920    25.7590    23.2420 cy         1 UEE       0.170300
     17 C14        -44.2520    23.8080    23.5290 cy         1 UEE      -0.071400
     18 C16        -42.6660    23.3170    22.1370 cy         1 UEE      -0.071400
     19 C18        -44.2430    29.2360    23.8300 ca         1 UEE      -0.109500
     20 C19        -44.5130    30.3750    24.5740 ca         1 UEE      -0.075500
     21 C23        -42.1880    37.4050    23.2480 c6         1 UEE       0.212800
     22 C30        -40.4130    40.8160    25.1780 ca         1 UEE       0.391900
     23 C32        -40.9540    42.4380    23.3930 c3         1 UEE       0.271100
     24 C33        -42.4490    42.1900    23.3240 ca         1 UEE      -0.123300
     25 C34        -43.0050    41.5400    22.2250 ca         1 UEE      -0.099000
     26 C35        -44.3730    41.2960    22.1590 ca         1 UEE      -0.107500
     27 C36        -45.2030    41.7020    23.1980 ca         1 UEE      -0.102000
     28 C37        -44.6550    42.3520    24.3020 ca         1 UEE      -0.107500
     29 C38        -43.2880    42.5940    24.3630 ca         1 UEE      -0.099000
     30 C39        -40.8060    39.7170    24.4180 ca         1 UEE      -0.336000
     31 N04        -42.9600    33.4660    25.6870 ns         1 UEE      -0.507900
     32 N11        -43.3950    26.7390    22.6080 nq         1 UEE      -0.738600
     33 N25        -41.3070    37.3460    24.4170 nh         1 UEE      -0.765300
     34 N27        -40.5330    38.3570    26.3650 nb         1 UEE      -0.318000
     35 N29        -40.0570    40.6900    26.4820 nb         1 UEE      -0.282000
     36 N31        -40.3450    42.0710    24.6620 nu         1 UEE      -0.921100
     37 O01        -43.1540    37.0440    26.6340 oh         1 UEE      -0.674000
     38 O20        -45.1690    32.9440    25.6490 o          1 UEE      -0.601100
     39 H1         -43.3600    28.1710    21.1210 h1         1 UEE       0.040700
     40 H2         -41.8020    27.9250    21.8870 h1         1 UEE       0.040700
     41 H3         -42.6050    22.4920    24.1830 hc         1 UEE       0.050200
     42 H4         -43.7700    21.6280    23.1650 hc         1 UEE       0.050200
     43 H5         -43.3520    25.7280    20.7000 h1         1 UEE       0.048450
     44 H6         -44.9580    25.7250    21.4860 h1         1 UEE       0.048450
     45 H7         -44.9230    36.1340    24.9750 hc         1 UEE       0.059200
     46 H8         -43.8370    35.2200    23.9310 hc         1 UEE       0.059200
     47 H9         -44.3010    37.3510    22.8230 hc         1 UEE       0.056700
     48 H10        -43.8740    38.2580    24.2680 hc         1 UEE       0.056700
     49 H11        -40.7570    36.0420    25.9610 h1         1 UEE       0.067700
     50 H12        -41.2860    35.2750    24.4590 h1         1 UEE       0.067700
     51 H13        -39.8500    39.3530    28.0210 h5         1 UEE       0.041100
     52 H14        -42.3360    34.6360    27.2860 h1         1 UEE       0.069200
     53 H15        -44.0690    34.6770    26.9470 h1         1 UEE       0.069200
     54 H16        -41.9140    32.2990    23.5510 ha         1 UEE       0.121500
     55 H17        -41.4510    30.2860    22.2370 ha         1 UEE       0.123500
     56 H18        -42.4420    25.8040    24.3330 h1         1 UEE       0.048450
     57 H19        -41.4740    25.8030    22.8290 h1         1 UEE       0.048450
     58 H20        -44.3930    24.1940    24.5400 hc         1 UEE       0.053450
     59 H21        -45.2300    23.6370    23.0760 hc         1 UEE       0.053450
     60 H22        -43.0840    22.9730    21.1880 hc         1 UEE       0.053450
     61 H23        -41.5780    23.3210    22.0620 hc         1 UEE       0.053450
     62 H24        -44.8830    28.3680    23.9060 ha         1 UEE       0.123500
     63 H25        -45.3770    30.4110    25.2240 ha         1 UEE       0.121500
     64 H26        -41.9560    36.5400    22.6210 h1         1 UEE       0.054200
     65 H27        -41.9890    38.2930    22.6580 h1         1 UEE       0.054200
     66 H28        -40.4640    41.9020    22.5780 h1         1 UEE       0.059700
     67 H29        -40.7410    43.4980    23.2450 h1         1 UEE       0.059700
     68 H30        -42.3580    41.2100    21.4190 ha         1 UEE       0.110500
     69 H31        -44.7900    40.7930    21.2950 ha         1 UEE       0.115500
     70 H32        -46.2670    41.5080    23.1530 ha         1 UEE       0.116000
     71 H33        -45.2950    42.6710    25.1150 ha         1 UEE       0.115500
     72 H34        -42.8670    43.0890    25.2300 ha         1 UEE       0.110500
     73 H35        -41.0570    39.8330    23.3800 ha         1 UEE       0.132000
     74 H36        -42.0330    33.1210    25.5020 hn         1 UEE       0.310500
     75 H38        -40.2130    42.8020    25.3440 hn         1 UEE       0.497000
     76 H39        -42.3010    37.3940    26.9410 ho         1 UEE       0.470000
     77 C05        -44.0060    32.6910    25.3260 c          1 UEE       0.610700
@<TRIPOS>BOND
     1     1    15 1   
     2     1    32 1   
     3     1    39 1   
     4     1    40 1   
     5     2     4 1   
     6     2    16 1   
     7     2    17 1   
     8     2    18 1   
     9     3    17 1   
    10     3    18 1   
    11     3    41 1   
    12     3    42 1   
    13     4    32 1   
    14     4    43 1   
    15     4    44 1   
    16     5     6 1   
    17     5    10 1   
    18     5    45 1   
    19     5    46 1   
    20     6    21 1   
    21     6    47 1   
    22     6    48 1   
    23     7    10 1   
    24     7    33 1   
    25     7    49 1   
    26     7    50 1   
    27     8    30 ar  
    28     8    33 1   
    29     8    34 ar  
    30     9    34 ar  
    31     9    35 ar  
    32     9    51 1   
    33    10    11 1   
    34    10    37 1   
    35    11    31 1   
    36    11    52 1   
    37    11    53 1   
    38    12    13 ar  
    39    12    20 ar  
    40    12    77 1   
    41    13    14 ar  
    42    13    54 1   
    43    14    15 ar  
    44    14    55 1   
    45    15    19 ar  
    46    16    32 1   
    47    16    56 1   
    48    16    57 1   
    49    17    58 1   
    50    17    59 1   
    51    18    60 1   
    52    18    61 1   
    53    19    20 ar  
    54    19    62 1   
    55    20    63 1   
    56    21    33 1   
    57    21    64 1   
    58    21    65 1   
    59    22    30 ar  
    60    22    35 ar  
    61    22    36 1   
    62    23    24 1   
    63    23    36 1   
    64    23    66 1   
    65    23    67 1   
    66    24    25 ar  
    67    24    29 ar  
    68    25    26 ar  
    69    25    68 1   
    70    26    27 ar  
    71    26    69 1   
    72    27    28 ar  
    73    27    70 1   
    74    28    29 ar  
    75    28    71 1   
    76    29    72 1   
    77    30    73 1   
    78    31    74 1   
    79    31    77 1   
    80    36    75 1   
    81    37    76 1   
    82    38    77 2   
@<TRIPOS>SUBSTRUCTURE
     1 UEE         1 TEMP              0 ****  ****    0 ROOT
