@<TRIPOS>MOLECULE
UEE
   77    82     1     0     0
SMALL
No Charge or Current Charge


@<TRIPOS>ATOM
      1 C10        -43.1880    28.3190    21.4300 c3         1 UEE       0.219100
      2 C13        -42.3580    25.1800    22.4040 cy         1 UEE      -0.106000
      3 C15        -41.9850    23.5280    23.5510 cy         1 UEE      -0.092400
      4 C17        -42.7810    25.7600    21.0560 cy         1 UEE       0.170300
      5 C21        -45.1540    35.7180    25.6580 c6         1 UEE      -0.068400
      6 C22        -45.2100    37.1700    25.1020 c6         1 UEE      -0.105400
      7 C24        -42.6370    35.8870    25.7630 c6         1 UEE       0.181800
      8 C26        -41.5580    38.1230    25.2890 ca         1 UEE       0.403900
      9 C28        -39.6640    38.8620    26.3470 ca         1 UEE       0.190900
     10 C02        -43.9130    35.5050    26.5750 c6         1 UEE       0.139000
     11 C03        -43.8240    34.0470    27.1400 c3         1 UEE       0.086000
     12 C06        -44.2470    31.2600    24.4830 ca         1 UEE      -0.155600
     13 C07        -42.8980    31.0780    24.0900 ca         1 UEE      -0.075500
     14 C08        -42.5600    30.1300    23.1070 ca         1 UEE      -0.109500
     15 C09        -43.5560    29.3480    22.4950 ca         1 UEE      -0.057300
     16 C12        -42.2010    26.5410    23.0870 cy         1 UEE       0.170300
     17 C14        -43.3500    24.2340    23.0830 cy         1 UEE      -0.071400
     18 C16        -41.1230    24.2880    22.4280 cy         1 UEE      -0.071400
     19 C18        -44.8970    29.5230    22.8800 ca         1 UEE      -0.109500
     20 C19        -45.2390    30.4680    23.8610 ca         1 UEE      -0.075500
     21 C23        -43.8770    37.5920    24.4310 c6         1 UEE       0.212800
     22 C30        -40.0780    39.6990    24.2670 ca         1 UEE       0.391900
     23 C32        -40.4760    41.0270    22.1170 c3         1 UEE       0.271100
     24 C33        -41.6580    41.8570    22.6140 ca         1 UEE      -0.123300
     25 C34        -42.9810    41.4320    22.3720 ca         1 UEE      -0.099000
     26 C35        -44.0680    42.1940    22.8330 ca         1 UEE      -0.107500
     27 C36        -43.8430    43.3890    23.5360 ca         1 UEE      -0.102000
     28 C37        -42.5280    43.8220    23.7770 ca         1 UEE      -0.107500
     29 C38        -41.4400    43.0600    23.3170 ca         1 UEE      -0.099000
     30 C39        -41.2370    38.9240    24.1850 ca         1 UEE      -0.336000
     31 N04        -43.6370    32.9980    26.1220 ns         1 UEE      -0.507900
     32 N11        -43.1410    26.9500    21.9500 nq         1 UEE      -0.738600
     33 N25        -42.7170    37.3200    25.3300 nh         1 UEE      -0.765300
     34 N27        -40.7660    38.0880    26.3760 nb         1 UEE      -0.318000
     35 N29        -39.2790    39.6700    25.3410 nb         1 UEE      -0.282000
     36 N31        -39.6640    40.5310    23.2410 nu         1 UEE      -0.921100
     37 O01        -44.0010    36.4120    27.6820 oh         1 UEE      -0.674000
     38 O20        -45.8220    32.4430    25.8570 o          1 UEE      -0.601100
     39 H1         -43.9250    28.3640    20.6170 h1         1 UEE       0.040700
     40 H2         -42.2080    28.5710    21.0020 h1         1 UEE       0.040700
     41 H3         -41.6900    23.7880    24.5740 hc         1 UEE       0.050200
     42 H4         -41.9810    22.4350    23.4760 hc         1 UEE       0.050200
     43 H5         -41.9460    25.9350    20.3660 h1         1 UEE       0.048450
     44 H6         -43.6130    25.2530    20.5550 h1         1 UEE       0.048450
     45 H7         -46.0780    35.4930    26.2090 hc         1 UEE       0.059200
     46 H8         -45.1190    35.0180    24.8120 hc         1 UEE       0.059200
     47 H9         -46.0300    37.2610    24.3780 hc         1 UEE       0.056700
     48 H10        -45.4430    37.8710    25.9150 hc         1 UEE       0.056700
     49 H11        -41.7500    35.7040    26.3870 h1         1 UEE       0.067700
     50 H12        -42.5470    35.2310    24.8840 h1         1 UEE       0.067700
     51 H13        -39.0220    38.8330    27.2260 h5         1 UEE       0.041100
     52 H14        -42.9790    33.9960    27.8390 h1         1 UEE       0.069200
     53 H15        -44.7350    33.8360    27.7160 h1         1 UEE       0.069200
     54 H16        -42.0950    31.6600    24.5340 ha         1 UEE       0.121500
     55 H17        -41.5180    30.0030    22.8220 ha         1 UEE       0.123500
     56 H18        -42.6000    26.6200    24.1060 h1         1 UEE       0.048450
     57 H19        -41.1900    26.9620    23.0230 h1         1 UEE       0.048450
     58 H20        -43.9800    24.6530    23.8750 hc         1 UEE       0.053450
     59 H21        -43.9600    23.6330    22.4010 hc         1 UEE       0.053450
     60 H22        -40.9550    23.7070    21.5140 hc         1 UEE       0.053450
     61 H23        -40.1840    24.7430    22.7590 hc         1 UEE       0.053450
     62 H24        -45.6750    28.9190    22.4180 ha         1 UEE       0.123500
     63 H25        -46.2850    30.5810    24.1390 ha         1 UEE       0.121500
     64 H26        -43.7550    37.0460    23.4840 h1         1 UEE       0.054200
     65 H27        -43.9410    38.6630    24.1900 h1         1 UEE       0.054200
     66 H28        -40.8390    40.1840    21.5130 h1         1 UEE       0.059700
     67 H29        -39.8580    41.6530    21.4570 h1         1 UEE       0.059700
     68 H30        -43.1690    40.5090    21.8270 ha         1 UEE       0.110500
     69 H31        -45.0860    41.8580    22.6440 ha         1 UEE       0.115500
     70 H32        -44.6850    43.9790    23.8930 ha         1 UEE       0.116000
     71 H33        -42.3520    44.7480    24.3210 ha         1 UEE       0.115500
     72 H34        -40.4260    43.4020    23.5100 ha         1 UEE       0.110500
     73 H35        -41.8560    38.9370    23.2990 ha         1 UEE       0.132000
     74 H36        -42.6950    32.7770    25.8280 hn         1 UEE       0.310500
     75 H38        -38.7970    41.0330    23.4340 hn         1 UEE       0.497000
     76 H39        -43.6100    37.2390    27.3110 ho         1 UEE       0.470000
     77 C05        -44.6540    32.2720    25.5370 c          1 UEE       0.610700
@<TRIPOS>BOND
     1     1    15 1   
     2     1    32 1   
     3     1    39 1   
     4     1    40 1   
     5     2     4 1   
     6     2    16 1   
     7     2    17 1   
     8     2    18 1   
     9     3    17 1   
    10     3    18 1   
    11     3    41 1   
    12     3    42 1   
    13     4    32 1   
    14     4    43 1   
    15     4    44 1   
    16     5     6 1   
    17     5    10 1   
    18     5    45 1   
    19     5    46 1   
    20     6    21 1   
    21     6    47 1   
    22     6    48 1   
    23     7    10 1   
    24     7    33 1   
    25     7    49 1   
    26     7    50 1   
    27     8    30 ar  
    28     8    33 1   
    29     8    34 ar  
    30     9    34 ar  
    31     9    35 ar  
    32     9    51 1   
    33    10    11 1   
    34    10    37 1   
    35    11    31 1   
    36    11    52 1   
    37    11    53 1   
    38    12    13 ar  
    39    12    20 ar  
    40    12    77 1   
    41    13    14 ar  
    42    13    54 1   
    43    14    15 ar  
    44    14    55 1   
    45    15    19 ar  
    46    16    32 1   
    47    16    56 1   
    48    16    57 1   
    49    17    58 1   
    50    17    59 1   
    51    18    60 1   
    52    18    61 1   
    53    19    20 ar  
    54    19    62 1   
    55    20    63 1   
    56    21    33 1   
    57    21    64 1   
    58    21    65 1   
    59    22    30 ar  
    60    22    35 ar  
    61    22    36 1   
    62    23    24 1   
    63    23    36 1   
    64    23    66 1   
    65    23    67 1   
    66    24    25 ar  
    67    24    29 ar  
    68    25    26 ar  
    69    25    68 1   
    70    26    27 ar  
    71    26    69 1   
    72    27    28 ar  
    73    27    70 1   
    74    28    29 ar  
    75    28    71 1   
    76    29    72 1   
    77    30    73 1   
    78    31    74 1   
    79    31    77 1   
    80    36    75 1   
    81    37    76 1   
    82    38    77 2   
@<TRIPOS>SUBSTRUCTURE
     1 UEE         1 TEMP              0 ****  ****    0 ROOT
