@<TRIPOS>MOLECULE
UEG
   23    23     1     0     0
SMALL
No Charge or Current Charge


@<TRIPOS>ATOM
      1 OP4          3.0970     0.6240    -1.0140 oh         1 UEG      -0.662000
      2 C5A          2.5120     0.3420     0.2630 c3         1 UEG       0.211900
      3 C5           0.9930     0.4550     0.1850 ca         1 UEG      -0.081300
      4 C6           0.3920     1.6700     0.5670 ca         1 UEG       0.324900
      5 N1          -0.9430     1.8840     0.5430 nb         1 UEG      -0.642000
      6 C2          -1.7380     0.8730     0.1270 ca         1 UEG       0.270300
      7 C3          -1.2330    -0.3930    -0.2830 ca         1 UEG       0.103100
      8 C4           0.1660    -0.6120    -0.2540 ca         1 UEG      -0.086300
      9 C4A          0.7640    -1.9560    -0.6840 c3         1 UEG       0.209900
     10 O4A          1.0430    -2.7690     0.4640 oh         1 UEG      -0.659000
     11 O3          -2.0810    -1.3950    -0.7030 oh         1 UEG      -0.537100
     12 C2A         -3.2300     1.1800     0.1220 c3         1 UEG      -0.152400
     13 HP4          4.0700     0.5450    -0.9040 ho         1 UEG       0.447000
     14 H5A          2.7950    -0.6630     0.6040 h1         1 UEG       0.036200
     15 H5B          2.8870     1.0490     1.0150 h1         1 UEG       0.036200
     16 H6           1.0030     2.5060     0.9060 h4         1 UEG       0.040100
     17 H2A         -3.6490     1.0830    -0.8870 hc         1 UEG       0.051367
     18 H2B         -3.7740     0.4980     0.7860 hc         1 UEG       0.051367
     19 H2C         -3.4400     2.2010     0.4640 hc         1 UEG       0.051367
     20 H3          -3.0080    -1.0780    -0.6480 ho         1 UEG       0.472000
     21 H4A          0.0750    -2.4790    -1.3610 h1         1 UEG       0.035700
     22 H4B          1.6830    -1.7800    -1.2580 h1         1 UEG       0.035700
     23 H5           1.3770    -3.6290     0.1260 ho         1 UEG       0.442000
@<TRIPOS>BOND
     1     1     2 1   
     2     1    13 1   
     3     2     3 1   
     4     2    14 1   
     5     2    15 1   
     6     3     4 ar  
     7     3     8 ar  
     8     4     5 ar  
     9     4    16 1   
    10     5     6 ar  
    11     6     7 ar  
    12     6    12 1   
    13     7     8 ar  
    14     7    11 1   
    15     8     9 1   
    16     9    10 1   
    17     9    21 1   
    18     9    22 1   
    19    10    23 1   
    20    11    20 1   
    21    12    17 1   
    22    12    18 1   
    23    12    19 1   
@<TRIPOS>SUBSTRUCTURE
     1 UEG         1 TEMP              0 ****  ****    0 ROOT
