@<TRIPOS>MOLECULE
UEG
   23    23     1     0     0
SMALL
abcg2


@<TRIPOS>ATOM
      1 OP4          3.1460     1.3870    -0.1410 oh         1 UEG      -0.662000
      2 C5A          2.4810     0.1570     0.0140 c3         1 UEG       0.211900
      3 C5           0.9930     0.3800    -0.0030 ca         1 UEG      -0.081300
      4 C6           0.4600     1.6320     0.2670 ca         1 UEG       0.324900
      5 N1          -0.8440     1.8850     0.2840 nb         1 UEG      -0.642000
      6 C2          -1.7020     0.9100     0.0390 ca         1 UEG       0.270300
      7 C3          -1.2580    -0.3910    -0.2400 ca         1 UEG       0.103100
      8 C4           0.1060    -0.6690    -0.2690 ca         1 UEG      -0.086300
      9 C4A          0.6130    -2.0550    -0.5550 c3         1 UEG       0.209900
     10 O4A          1.2450    -2.5430     0.6110 oh         1 UEG      -0.659000
     11 O3          -2.1230    -1.3950    -0.4860 oh         1 UEG      -0.537100
     12 C2A         -3.1680     1.2280     0.0690 c3         1 UEG      -0.152400
     13 HP4          4.0820     1.2380     0.0170 ho         1 UEG       0.447000
     14 H5A          2.7580    -0.5450    -0.7830 h1         1 UEG       0.036200
     15 H5B          2.7540    -0.3290     0.9580 h1         1 UEG       0.036200
     16 H6           1.1080     2.4730     0.4780 h4         1 UEG       0.040100
     17 H2A         -3.6530     1.0260    -0.8900 hc         1 UEG       0.051367
     18 H2B         -3.6990     0.6520     0.8320 hc         1 UEG       0.051367
     19 H2C         -3.3130     2.2810     0.2950 hc         1 UEG       0.051367
     20 H3          -3.0350    -1.0910    -0.4310 ho         1 UEG       0.472000
     21 H4A         -0.2050    -2.7090    -0.8690 h1         1 UEG       0.035700
     22 H4B          1.3120    -2.0070    -1.4000 h1         1 UEG       0.035700
     23 H5           1.7020    -3.3580     0.3790 ho         1 UEG       0.442000
@<TRIPOS>BOND
     1     1     2 1   
     2     1    13 1   
     3     2     3 1   
     4     2    14 1   
     5     2    15 1   
     6     3     4 ar  
     7     3     8 ar  
     8     4     5 ar  
     9     4    16 1   
    10     5     6 ar  
    11     6     7 ar  
    12     6    12 1   
    13     7     8 ar  
    14     7    11 1   
    15     8     9 1   
    16     9    10 1   
    17     9    21 1   
    18     9    22 1   
    19    10    23 1   
    20    11    20 1   
    21    12    17 1   
    22    12    18 1   
    23    12    19 1   
@<TRIPOS>SUBSTRUCTURE
     1 UEG         1 TEMP              0 ****  ****    0 ROOT
