@<TRIPOS>MOLECULE
UEI
   20    19     1     0     0
SMALL
No Charge or Current Charge


@<TRIPOS>ATOM
      1 CAA         42.7810    29.6820    31.3460 c          1 UEI       0.686000
      2 CAB         42.7260    29.4410    29.7890 c3         1 UEI       0.028300
      3 CAC         42.0600    28.0720    29.4240 c3         1 UEI      -0.053700
      4 CAD         42.1790    27.7000    27.9170 c3         1 UEI      -0.067400
      5 CAE         43.6250    27.5710    27.3910 c3         1 UEI      -0.080100
      6 CAI         40.5870    27.9790    29.8990 c3         1 UEI      -0.074100
      7 OAF         42.0560    30.5330    29.1030 oh         1 UEI      -0.718000
      8 OAG         43.5460    29.0080    32.0220 o          1 UEI      -0.727500
      9 OAH         42.1200    30.6100    31.7990 o          1 UEI      -0.727500
     10 H1          43.7740    29.4060    29.4640 h1         1 UEI       0.029700
     11 H2          42.6100    27.3000    29.9760 hc         1 UEI       0.050700
     12 H3          41.6420    28.4380    27.3080 hc         1 UEI       0.023700
     13 H4          41.6750    26.7400    27.7510 hc         1 UEI       0.023700
     14 H5          43.6200    27.2020    26.3580 hc         1 UEI       0.021033
     15 H6          44.1380    28.5390    27.3990 hc         1 UEI       0.021033
     16 H7          44.1990    26.8650    28.0030 hc         1 UEI       0.021033
     17 H8          40.5070    28.1600    30.9770 hc         1 UEI       0.024700
     18 H9          39.9560    28.7100    29.3790 hc         1 UEI       0.024700
     19 H10         40.1810    26.9800    29.7010 hc         1 UEI       0.024700
     20 H11         41.6950    31.0930    29.8340 ho         1 UEI       0.471000
@<TRIPOS>BOND
     1     1     2 1   
     2     1     8 1   
     3     1     9 1   
     4     2     3 1   
     5     2     7 1   
     6     2    10 1   
     7     3     4 1   
     8     3     6 1   
     9     3    11 1   
    10     4     5 1   
    11     4    12 1   
    12     4    13 1   
    13     5    14 1   
    14     5    15 1   
    15     5    16 1   
    16     6    17 1   
    17     6    18 1   
    18     6    19 1   
    19     7    20 1   
@<TRIPOS>SUBSTRUCTURE
     1 UEI         1 TEMP              0 ****  ****    0 ROOT
