@<TRIPOS>MOLECULE
UEI
   20    19     1     0     0
SMALL
abcg2


@<TRIPOS>ATOM
      1 CAA         42.6990    29.7010    31.2950 c          1 UEI       0.686000
      2 CAB         42.7430    29.3930    29.7790 c3         1 UEI       0.028300
      3 CAC         42.0960    28.0380    29.4450 c3         1 UEI      -0.053700
      4 CAD         42.1740    27.7140    27.9470 c3         1 UEI      -0.067400
      5 CAE         43.5900    27.6120    27.3820 c3         1 UEI      -0.080100
      6 CAI         40.6490    27.9650    29.9340 c3         1 UEI      -0.074100
      7 OAF         42.1190    30.4590    29.0640 oh         1 UEI      -0.718000
      8 OAG         43.2750    28.9050    32.0690 o          1 UEI      -0.727500
      9 OAH         42.0760    30.7520    31.6150 o          1 UEI      -0.727500
     10 H1          43.8010    29.3540    29.4950 h1         1 UEI       0.029700
     11 H2          42.6820    27.2860    29.9830 hc         1 UEI       0.050700
     12 H3          41.6090    28.4700    27.3920 hc         1 UEI       0.023700
     13 H4          41.6580    26.7630    27.7830 hc         1 UEI       0.023700
     14 H5          43.5690    27.2920    26.3380 hc         1 UEI       0.021033
     15 H6          44.1130    28.5700    27.4210 hc         1 UEI       0.021033
     16 H7          44.1840    26.8850    27.9420 hc         1 UEI       0.021033
     17 H8          40.5830    28.1040    31.0150 hc         1 UEI       0.024700
     18 H9          40.0400    28.7360    29.4560 hc         1 UEI       0.024700
     19 H10         40.2120    26.9940    29.6940 hc         1 UEI       0.024700
     20 H11         41.8060    31.0350    29.7910 ho         1 UEI       0.471000
@<TRIPOS>BOND
     1     1     2 1   
     2     1     8 1   
     3     1     9 1   
     4     2     3 1   
     5     2     7 1   
     6     2    10 1   
     7     3     4 1   
     8     3     6 1   
     9     3    11 1   
    10     4     5 1   
    11     4    12 1   
    12     4    13 1   
    13     5    14 1   
    14     5    15 1   
    15     5    16 1   
    16     6    17 1   
    17     6    18 1   
    18     6    19 1   
    19     7    20 1   
@<TRIPOS>SUBSTRUCTURE
     1 UEI         1 TEMP              0 ****  ****    0 ROOT
