@<TRIPOS>MOLECULE
UEJ
   71    76     1     0     0
SMALL
No Charge or Current Charge


@<TRIPOS>ATOM
      1 C10         -5.6270    17.6790   -31.0020 ca         1 UEJ      -0.097000
      2 C11         -4.4340    17.2870   -30.3460 ca         1 UEJ      -0.097000
      3 C12         -3.9960    15.9450   -30.3890 ca         1 UEJ      -0.042000
      4 C13         -4.7800    15.0240   -31.0980 ca         1 UEJ      -0.140600
      5 C14         -4.5790    13.5630   -31.3210 c          1 UEJ       0.597100
      6 C16         -8.3280    11.0340   -32.3670 ca         1 UEJ       0.149100
      7 C17         -9.3780    10.3840   -31.7030 ca         1 UEJ      -0.109000
      8 C18         -9.1570     9.7670   -30.4650 ca         1 UEJ      -0.115000
      9 C19         -7.8800     9.7930   -29.8930 ca         1 UEJ       0.164000
     10 C21         -3.1070     9.4420   -30.3190 ca         1 UEJ      -0.024000
     11 C22         -2.3850    10.0920   -29.2950 ca         1 UEJ      -0.117000
     12 C23         -1.0180     9.8230   -29.1130 ca         1 UEJ      -0.094000
     13 C24         -0.3620     8.9010   -29.9430 ca         1 UEJ      -0.121000
     14 C25         -1.0730     8.2230   -30.9540 ca         1 UEJ      -0.088500
     15 C26         -0.3840     7.2970   -31.8560 cc         1 UEJ       0.331500
     16 C27          0.4340     6.2620   -31.4270 cd         1 UEJ      -0.148000
     17 C28          0.6750     5.6810   -30.0860 ca         1 UEJ       0.052000
     18 C29         -0.1640     5.9160   -28.9780 ca         1 UEJ      -0.174000
     19 C30          0.1290     5.3200   -27.7430 ca         1 UEJ       0.372900
     20 C32          1.9780     4.2560   -28.6070 ca         1 UEJ       0.482900
     21 C34          3.9170     2.6940   -29.0300 c          1 UEJ       0.617100
     22 C35          4.9230     1.8710   -28.2360 c3         1 UEJ      -0.180100
     23 C37          1.7640     4.8120   -29.8810 ca         1 UEJ      -0.185000
     24 C39          0.3440     6.4510   -33.6330 cd         1 UEJ       0.518800
     25 C03         -6.8020    10.4160   -30.5540 ca         1 UEJ      -0.155600
     26 C04         -7.0200    11.0520   -31.8150 ca         1 UEJ      -0.133300
     27 C07         -6.5380    14.2080   -32.3970 c          1 UEJ       0.597100
     28 C08         -5.9500    15.4090   -31.7410 ca         1 UEJ      -0.140600
     29 C09         -6.4020    16.7360   -31.7120 ca         1 UEJ      -0.042000
     30 C41         -0.3350     7.2970   -36.2460 c3         1 UEJ       0.045900
     31 C43         -2.4360     8.5250   -31.1510 ca         1 UEJ      -0.131000
     32 N06         -5.6740    13.1620   -32.0870 n          1 UEJ      -0.392400
     33 N20         -4.4840     9.6800   -30.5780 ns         1 UEJ      -0.134000
     34 N31          1.1870     4.5040   -27.5490 nb         1 UEJ      -0.734000
     35 N33          3.0230     3.3940   -28.2550 ns         1 UEJ      -0.326900
     36 N38          0.9170     5.7270   -32.6190 na         1 UEJ      -0.274500
     37 N42         -0.4530     7.4080   -33.2160 nc         1 UEJ      -0.682000
     38 O01         -5.2800    10.9100   -28.7870 o          1 UEJ      -0.561100
     39 O15         -3.6510    12.8690   -30.9360 o          1 UEJ      -0.494500
     40 O36          3.9180     2.7080   -30.2530 o          1 UEJ      -0.582100
     41 O44         -7.5520    14.1390   -33.0770 o          1 UEJ      -0.494500
     42 O45         -8.6140    11.6700   -33.5410 oh         1 UEJ      -0.559100
     43 S40          0.6750     6.0540   -35.3180 ss         1 UEJ      -0.350300
     44 H1          -5.9500    18.7170   -30.9600 ha         1 UEJ       0.123000
     45 H2          -3.8490    18.0270   -29.8040 ha         1 UEJ       0.123000
     46 H3          -3.0800    15.6370   -29.8880 ha         1 UEJ       0.140500
     47 H4         -10.3730    10.3750   -32.1430 ha         1 UEJ       0.137000
     48 H5          -9.9740     9.2690   -29.9480 ha         1 UEJ       0.139000
     49 H6          -2.8560    10.8230   -28.6460 ha         1 UEJ       0.144000
     50 H7          -0.4630    10.3380   -28.3320 ha         1 UEJ       0.115000
     51 H8           0.7000     8.7110   -29.8030 ha         1 UEJ       0.119000
     52 H9          -1.0590     6.5200   -29.0550 ha         1 UEJ       0.141000
     53 H10         -0.5130     5.4930   -26.8800 h4         1 UEJ       0.023100
     54 H11          5.6190     1.3200   -28.8780 hc         1 UEJ       0.067033
     55 H12          5.4510     2.5300   -27.5370 hc         1 UEJ       0.067033
     56 H13          4.3800     1.2020   -27.5590 hc         1 UEJ       0.067033
     57 H14          2.4480     4.6010   -30.6920 ha         1 UEJ       0.155000
     58 H15         -6.0990    11.8110   -33.6330 h1         1 UEJ       0.074700
     59 H16         -4.9450    11.2240   -32.4750 h1         1 UEJ       0.074700
     60 H17         -7.3190    17.0290   -32.2190 ha         1 UEJ       0.140500
     61 H18         -0.2070     7.1470   -37.3250 h1         1 UEJ       0.073367
     62 H19         -1.3960     7.1810   -35.9910 h1         1 UEJ       0.073367
     63 H20         -0.0110     8.3120   -35.9830 h1         1 UEJ       0.073367
     64 H21         -2.9790     8.0290   -31.9530 ha         1 UEJ       0.122000
     65 H22         -4.8170     9.2630   -31.4370 hn         1 UEJ       0.156000
     66 H23          3.1180     3.2610   -27.2580 hn         1 UEJ       0.167000
     67 H24          1.5260     4.9300   -32.7450 hn         1 UEJ       0.370000
     68 H26         -8.2230    12.5790   -33.4970 ho         1 UEJ       0.502000
     69 C05         -5.8850    11.7810   -32.5560 c3         1 UEJ       0.149300
     70 F46         -7.6890     9.1730   -28.7060 f          1 UEJ      -0.170000
     71 C02         -5.4600    10.3740   -29.8750 c          1 UEJ       0.626700
@<TRIPOS>BOND
     1     1     2 ar  
     2     1    29 ar  
     3     1    44 1   
     4     2     3 ar  
     5     2    45 1   
     6     3     4 ar  
     7     3    46 1   
     8     4     5 1   
     9     4    28 ar  
    10     5    32 1   
    11     5    39 2   
    12     6     7 ar  
    13     6    26 ar  
    14     6    42 1   
    15     7     8 ar  
    16     7    47 1   
    17     8     9 ar  
    18     8    48 1   
    19     9    25 ar  
    20     9    70 1   
    21    10    11 ar  
    22    10    31 ar  
    23    10    33 1   
    24    11    12 ar  
    25    11    49 1   
    26    12    13 ar  
    27    12    50 1   
    28    13    14 ar  
    29    13    51 1   
    30    14    15 1   
    31    14    31 ar  
    32    15    16 2   
    33    15    37 1   
    34    16    17 1   
    35    16    36 1   
    36    17    18 ar  
    37    17    23 ar  
    38    18    19 ar  
    39    18    52 1   
    40    19    34 ar  
    41    19    53 1   
    42    20    23 ar  
    43    20    34 ar  
    44    20    35 1   
    45    21    22 1   
    46    21    35 1   
    47    21    40 2   
    48    22    54 1   
    49    22    55 1   
    50    22    56 1   
    51    23    57 1   
    52    24    36 1   
    53    24    37 2   
    54    24    43 1   
    55    25    26 ar  
    56    25    71 1   
    57    26    69 1   
    58    27    28 1   
    59    27    32 1   
    60    27    41 2   
    61    28    29 ar  
    62    29    60 1   
    63    30    43 1   
    64    30    61 1   
    65    30    62 1   
    66    30    63 1   
    67    31    64 1   
    68    32    69 1   
    69    33    65 1   
    70    33    71 1   
    71    35    66 1   
    72    36    67 1   
    73    38    71 2   
    74    42    68 1   
    75    58    69 1   
    76    59    69 1   
@<TRIPOS>SUBSTRUCTURE
     1 UEJ         1 TEMP              0 ****  ****    0 ROOT
