@<TRIPOS>MOLECULE
UEJ
   71    76     1     0     0
SMALL
abcg2


@<TRIPOS>ATOM
      1 C10         -4.9550    17.5580   -30.8370 ca         1 UEJ      -0.097000
      2 C11         -3.7180    17.0310   -30.4780 ca         1 UEJ      -0.097000
      3 C12         -3.4090    15.6910   -30.7090 ca         1 UEJ      -0.042000
      4 C13         -4.3810    14.9160   -31.3020 ca         1 UEJ      -0.140600
      5 C14         -4.3620    13.4860   -31.6870 c          1 UEJ       0.597100
      6 C16         -8.4870    11.3760   -32.4740 ca         1 UEJ       0.149100
      7 C17         -9.5000    10.6670   -31.8320 ca         1 UEJ      -0.109000
      8 C18         -9.2310     9.8930   -30.7180 ca         1 UEJ      -0.115000
      9 C19         -7.9380     9.8600   -30.2390 ca         1 UEJ       0.164000
     10 C21         -3.4530     9.2080   -30.2290 ca         1 UEJ      -0.024000
     11 C22         -2.8720     9.6910   -29.0560 ca         1 UEJ      -0.117000
     12 C23         -1.5800     9.3020   -28.7330 ca         1 UEJ      -0.094000
     13 C24         -0.8610     8.4430   -29.5440 ca         1 UEJ      -0.121000
     14 C25         -1.4430     7.9410   -30.7090 ca         1 UEJ      -0.088500
     15 C26         -0.7090     7.0370   -31.5960 cc         1 UEJ       0.331500
     16 C27          0.1440     6.0060   -31.2760 cd         1 UEJ      -0.148000
     17 C28          0.5270     5.3920   -30.0120 ca         1 UEJ       0.052000
     18 C29         -0.3940     5.2670   -28.9710 ca         1 UEJ      -0.174000
     19 C30          0.0260     4.6690   -27.8000 ca         1 UEJ       0.372900
     20 C32          2.1240     4.2970   -28.6050 ca         1 UEJ       0.482900
     21 C34          4.4840     3.6290   -29.0620 c          1 UEJ       0.617100
     22 C35          5.6130     2.8960   -28.3850 c3         1 UEJ      -0.180100
     23 C37          1.8150     4.8960   -29.8270 ca         1 UEJ      -0.185000
     24 C39          0.0240     6.2800   -33.4540 cd         1 UEJ       0.518800
     25 C03         -6.9110    10.5420   -30.8580 ca         1 UEJ      -0.155600
     26 C04         -7.1690    11.2950   -32.0070 ca         1 UEJ      -0.133300
     27 C07         -6.4040    14.3570   -32.2760 c          1 UEJ       0.597100
     28 C08         -5.6130    15.4410   -31.6590 ca         1 UEJ      -0.140600
     29 C09         -5.9290    16.7650   -31.4390 ca         1 UEJ      -0.042000
     30 C41         -0.7270     7.2260   -35.8910 c3         1 UEJ       0.045900
     31 C43         -2.7300     8.3410   -31.0470 ca         1 UEJ      -0.131000
     32 N06         -5.6220    13.2250   -32.2300 n          1 UEJ      -0.392400
     33 N20         -4.7590     9.5180   -30.6320 ns         1 UEJ      -0.134000
     34 N31          1.2500     4.1930   -27.6120 nb         1 UEJ      -0.734000
     35 N33          3.3670     3.7600   -28.2890 ns         1 UEJ      -0.326900
     36 N38          0.6120     5.5510   -32.4860 na         1 UEJ      -0.274500
     37 N42         -0.7760     7.1860   -32.9550 nc         1 UEJ      -0.682000
     38 O01         -5.2730    11.3380   -29.3520 o          1 UEJ      -0.561100
     39 O15         -3.4680    12.6900   -31.5940 o          1 UEJ      -0.494500
     40 O36          4.5610     4.0370   -30.2050 o          1 UEJ      -0.582100
     41 O44         -7.5160    14.4170   -32.7520 o          1 UEJ      -0.494500
     42 O45         -8.8250    12.1040   -33.5590 oh         1 UEJ      -0.559100
     43 S40          0.3520     5.9890   -35.1410 ss         1 UEJ      -0.350300
     44 H1          -5.1610    18.6020   -30.6450 ha         1 UEJ       0.123000
     45 H2          -2.9830    17.6740   -30.0130 ha         1 UEJ       0.123000
     46 H3          -2.4460    15.2830   -30.4310 ha         1 UEJ       0.140500
     47 H4         -10.5110    10.7310   -32.2130 ha         1 UEJ       0.137000
     48 H5         -10.0180     9.3410   -30.2210 ha         1 UEJ       0.139000
     49 H6          -3.4080    10.3560   -28.3990 ha         1 UEJ       0.144000
     50 H7          -1.1270     9.6880   -27.8280 ha         1 UEJ       0.115000
     51 H8           0.1530     8.1720   -29.2810 ha         1 UEJ       0.119000
     52 H9          -1.4130     5.6100   -29.0720 ha         1 UEJ       0.141000
     53 H10         -0.6630     4.5570   -26.9710 h4         1 UEJ       0.023100
     54 H11          6.5660     3.2390   -28.7820 hc         1 UEJ       0.067033
     55 H12          5.6140     3.0190   -27.3030 hc         1 UEJ       0.067033
     56 H13          5.5250     1.8290   -28.5990 hc         1 UEJ       0.067033
     57 H14          2.5620     4.9900   -30.5990 ha         1 UEJ       0.155000
     58 H15         -6.2950    12.0640   -33.8180 h1         1 UEJ       0.074700
     59 H16         -5.1550    11.3000   -32.7500 h1         1 UEJ       0.074700
     60 H17         -6.8900    17.1750   -31.7200 ha         1 UEJ       0.140500
     61 H18         -0.5890     7.1270   -36.9650 h1         1 UEJ       0.073367
     62 H19         -1.7680     7.0390   -35.6440 h1         1 UEJ       0.073367
     63 H20         -0.4440     8.2290   -35.5830 h1         1 UEJ       0.073367
     64 H21         -3.1830     7.9640   -31.9570 ha         1 UEJ       0.122000
     65 H22         -5.1330     8.9410   -31.3730 hn         1 UEJ       0.156000
     66 H23          3.4060     3.3840   -27.3520 hn         1 UEJ       0.167000
     67 H24          1.2220     4.7570   -32.6220 hn         1 UEJ       0.370000
     68 H26         -8.3640    12.9620   -33.5270 ho         1 UEJ       0.502000
     69 C05         -6.0350    11.9420   -32.7660 c3         1 UEJ       0.149300
     70 F46         -7.6540     9.1380   -29.1410 f          1 UEJ      -0.170000
     71 C02         -5.5590    10.5180   -30.2010 c          1 UEJ       0.626700
@<TRIPOS>BOND
     1     1     2 ar  
     2     1    29 ar  
     3     1    44 1   
     4     2     3 ar  
     5     2    45 1   
     6     3     4 ar  
     7     3    46 1   
     8     4     5 1   
     9     4    28 ar  
    10     5    32 1   
    11     5    39 2   
    12     6     7 ar  
    13     6    26 ar  
    14     6    42 1   
    15     7     8 ar  
    16     7    47 1   
    17     8     9 ar  
    18     8    48 1   
    19     9    25 ar  
    20     9    70 1   
    21    10    11 ar  
    22    10    31 ar  
    23    10    33 1   
    24    11    12 ar  
    25    11    49 1   
    26    12    13 ar  
    27    12    50 1   
    28    13    14 ar  
    29    13    51 1   
    30    14    15 1   
    31    14    31 ar  
    32    15    16 2   
    33    15    37 1   
    34    16    17 1   
    35    16    36 1   
    36    17    18 ar  
    37    17    23 ar  
    38    18    19 ar  
    39    18    52 1   
    40    19    34 ar  
    41    19    53 1   
    42    20    23 ar  
    43    20    34 ar  
    44    20    35 1   
    45    21    22 1   
    46    21    35 1   
    47    21    40 2   
    48    22    54 1   
    49    22    55 1   
    50    22    56 1   
    51    23    57 1   
    52    24    36 1   
    53    24    37 2   
    54    24    43 1   
    55    25    26 ar  
    56    25    71 1   
    57    26    69 1   
    58    27    28 1   
    59    27    32 1   
    60    27    41 2   
    61    28    29 ar  
    62    29    60 1   
    63    30    43 1   
    64    30    61 1   
    65    30    62 1   
    66    30    63 1   
    67    31    64 1   
    68    32    69 1   
    69    33    65 1   
    70    33    71 1   
    71    35    66 1   
    72    36    67 1   
    73    38    71 2   
    74    42    68 1   
    75    58    69 1   
    76    59    69 1   
@<TRIPOS>SUBSTRUCTURE
     1 UEJ         1 TEMP              0 ****  ****    0 ROOT
