@<TRIPOS>MOLECULE
UEK
   68    71     1     0     0
SMALL
No Charge or Current Charge


@<TRIPOS>ATOM
      1 Cl1        -12.4890    -0.0360     0.7860 cl         1 UEK      -0.213000
      2 C26        -10.8290    -0.2970     0.2670 ca         1 UEK       0.120000
      3 C25        -10.0610     0.7830    -0.1960 ca         1 UEK      -0.104000
      4 C24         -8.7330     0.5750    -0.6110 ca         1 UEK      -0.089500
      5 C27        -10.2740    -1.5860     0.3140 ca         1 UEK      -0.104000
      6 C28         -8.9470    -1.7960    -0.1010 ca         1 UEK      -0.089500
      7 C23         -8.1670    -0.7160    -0.5630 ca         1 UEK      -0.059300
      8 C22         -6.7280    -0.9390    -1.0240 c3         1 UEK      -0.027100
      9 C           -5.6650    -0.3600    -0.0530 c3         1 UEK       0.179500
     10 N           -5.7350    -1.0250     1.2620 n8         1 UEK      -0.994200
     11 C1          -4.2360    -0.4870    -0.6210 c3         1 UEK      -0.201400
     12 C2          -3.1480     0.3490     0.0760 c          1 UEK       0.602100
     13 O           -3.4210     1.1490     0.9630 o          1 UEK      -0.611100
     14 N1          -1.8120     0.1760    -0.3340 n          1 UEK      -0.422800
     15 C7          -0.6880     0.9120     0.2840 c5         1 UEK       0.108000
     16 C6           0.5210     0.0900    -0.2410 c5         1 UEK      -0.038400
     17 C4           0.0740    -0.2590    -1.6900 c5         1 UEK      -0.076700
     18 C5           0.9720    -1.2950    -2.4040 c3         1 UEK       0.168600
     19 O1           0.4530    -1.5850    -3.7070 oh         1 UEK      -0.666000
     20 C3          -1.3840    -0.7310    -1.4280 c5         1 UEK       0.112000
     21 C8           1.7780     0.9740    -0.2770 ca         1 UEK      -0.054300
     22 C21          2.9410     0.5320     0.3880 ca         1 UEK      -0.105000
     23 C12          4.1280     1.3000     0.3810 ca         1 UEK      -0.016000
     24 C11          4.1340     2.5360    -0.2970 ca         1 UEK       0.079000
     25 Cl           5.5860     3.5390    -0.3310 cl         1 UEK      -0.203000
     26 C10          2.9850     2.9860    -0.9630 ca         1 UEK      -0.081000
     27 C9           1.8150     2.2120    -0.9570 ca         1 UEK      -0.112000
     28 N2           5.3210     0.8910     1.0430 ns         1 UEK      -0.162000
     29 C13          5.7060    -0.3090     1.6250 c          1 UEK       0.608100
     30 O2           5.0190    -1.3240     1.6350 o          1 UEK      -0.565100
     31 C14          7.1120    -0.2840     2.2400 c3         1 UEK      -0.110100
     32 C15          8.1290    -0.9040     1.2870 ca         1 UEK      -0.091300
     33 C20          8.7900    -0.1010     0.3340 ca         1 UEK      -0.066000
     34 C19          9.7220    -0.6750    -0.5490 ca         1 UEK      -0.150000
     35 C18          9.9940    -2.0500    -0.4820 ca         1 UEK       0.178000
     36 F           10.8890    -2.6000    -1.3310 f          1 UEK      -0.178000
     37 C17          9.3400    -2.8560     0.4610 ca         1 UEK      -0.150000
     38 C16          8.4070    -2.2850     1.3450 ca         1 UEK      -0.066000
     39 H25        -10.4930     1.7800    -0.2330 ha         1 UEK       0.127000
     40 H27        -10.8720    -2.4210     0.6710 ha         1 UEK       0.127000
     41 H24         -8.1450     1.4160    -0.9710 ha         1 UEK       0.113500
     42 H28         -8.5240    -2.7970    -0.0600 ha         1 UEK       0.113500
     43 H221        -6.5350    -2.0080    -1.1760 hc         1 UEK       0.044200
     44 H222        -6.5980    -0.4710    -2.0080 hc         1 UEK       0.044200
     45 H           -5.8920     0.7090     0.0830 h1         1 UEK       0.083700
     46 HN1         -5.3960    -1.9880     1.1680 hn         1 UEK       0.400500
     47 HN2         -5.0470    -0.5830     1.8830 hn         1 UEK       0.400500
     48 H11C        -3.9050    -1.5300    -0.6830 hc         1 UEK       0.062700
     49 H12C        -4.2120    -0.1990    -1.6780 hc         1 UEK       0.062700
     50 H71C        -0.6860     1.9550    -0.0580 h1         1 UEK       0.061700
     51 H72C        -0.7370     0.9080     1.3810 h1         1 UEK       0.061700
     52 H31C        -1.4170    -1.7770    -1.0950 h1         1 UEK       0.052700
     53 H32C        -2.0050    -0.6310    -2.3280 h1         1 UEK       0.052700
     54 H6           0.6580    -0.8180     0.3590 hc         1 UEK       0.065700
     55 H4           0.0540     0.6310    -2.3280 hc         1 UEK       0.073700
     56 H51C         1.9900    -0.8910    -2.4810 h1         1 UEK       0.030700
     57 H52C         1.0190    -2.2100    -1.7980 h1         1 UEK       0.030700
     58 H1           1.0700    -2.2280    -4.1250 ho         1 UEK       0.450000
     59 H21          2.9010    -0.4140     0.9160 ha         1 UEK       0.137000
     60 H9           0.9400     2.5840    -1.4840 ha         1 UEK       0.124000
     61 H2           6.0250     1.6160     1.0910 hn         1 UEK       0.162000
     62 H10          3.0020     3.9390    -1.4870 ha         1 UEK       0.133000
     63 H141         7.4050     0.7520     2.4480 hc         1 UEK       0.068700
     64 H142         7.0940    -0.8490     3.1790 hc         1 UEK       0.068700
     65 H20          8.5830     0.9650     0.2760 ha         1 UEK       0.116000
     66 H16          7.9000    -2.9150     2.0730 ha         1 UEK       0.116000
     67 H19         10.2320    -0.0570    -1.2830 ha         1 UEK       0.133000
     68 H17          9.5550    -3.9210     0.5060 ha         1 UEK       0.133000
@<TRIPOS>BOND
     1     1     2 1   
     2     2     3 ar  
     3     2     5 ar  
     4     3     4 ar  
     5     3    39 1   
     6     4     7 ar  
     7     4    41 1   
     8     5     6 ar  
     9     5    40 1   
    10     6     7 ar  
    11     6    42 1   
    12     7     8 1   
    13     8     9 1   
    14     8    43 1   
    15     8    44 1   
    16     9    10 1   
    17     9    11 1   
    18     9    45 1   
    19    10    46 1   
    20    10    47 1   
    21    11    12 1   
    22    11    48 1   
    23    11    49 1   
    24    12    13 2   
    25    12    14 1   
    26    14    15 1   
    27    14    20 1   
    28    15    16 1   
    29    15    50 1   
    30    15    51 1   
    31    16    17 1   
    32    16    21 1   
    33    16    54 1   
    34    17    18 1   
    35    17    20 1   
    36    17    55 1   
    37    18    19 1   
    38    18    56 1   
    39    18    57 1   
    40    19    58 1   
    41    20    52 1   
    42    20    53 1   
    43    21    22 ar  
    44    21    27 ar  
    45    22    23 ar  
    46    22    59 1   
    47    23    24 ar  
    48    23    28 1   
    49    24    25 1   
    50    24    26 ar  
    51    26    27 ar  
    52    26    62 1   
    53    27    60 1   
    54    28    29 1   
    55    28    61 1   
    56    29    30 2   
    57    29    31 1   
    58    31    32 1   
    59    31    63 1   
    60    31    64 1   
    61    32    33 ar  
    62    32    38 ar  
    63    33    34 ar  
    64    33    65 1   
    65    34    35 ar  
    66    34    67 1   
    67    35    36 1   
    68    35    37 ar  
    69    37    38 ar  
    70    37    68 1   
    71    38    66 1   
@<TRIPOS>SUBSTRUCTURE
     1 UEK         1 TEMP              0 ****  ****    0 ROOT
