@<TRIPOS>MOLECULE
UEK
   68    71     1     0     0
SMALL
bcc


@<TRIPOS>ATOM
      1 CL1        -11.7330    -1.5710     1.7250 cl         1 UEK      -0.121400
      2 C26        -10.1900    -1.4230     0.9430 ca         1 UEK       0.028400
      3 C25         -9.9060    -0.2860     0.2040 ca         1 UEK      -0.122000
      4 C24         -8.6710    -0.1820    -0.4200 ca         1 UEK      -0.107500
      5 C27         -9.2630    -2.4470     1.0630 ca         1 UEK      -0.122000
      6 C28         -8.0330    -2.3190     0.4340 ca         1 UEK      -0.107500
      7 C23         -7.7160    -1.1910    -0.3180 ca         1 UEK      -0.059300
      8 C22         -6.3780    -1.0410    -0.9780 c3         1 UEK      -0.027100
      9 C           -5.3610    -0.2970    -0.1040 c3         1 UEK       0.179500
     10 N           -5.1490    -1.0350     1.1270 n8         1 UEK      -0.883800
     11 C1          -4.0900    -0.0520    -0.9220 c3         1 UEK      -0.201400
     12 C2          -3.0510     0.7680    -0.1870 c          1 UEK       0.669100
     13 O           -3.3350     1.4590     0.7870 o          1 UEK      -0.611100
     14 N1          -1.7960     0.7110    -0.6600 n          1 UEK      -0.489800
     15 C7          -0.7050     1.4130    -0.0040 c5         1 UEK       0.108000
     16 C6           0.5380     0.7900    -0.6370 c5         1 UEK      -0.038400
     17 C4           0.0670     0.4800    -2.0630 c5         1 UEK      -0.076700
     18 C5           0.9630    -0.5050    -2.7800 c3         1 UEK       0.145400
     19 O1           0.4100    -0.7780    -4.0470 oh         1 UEK      -0.603800
     20 C3          -1.3570    -0.0240    -1.8410 c5         1 UEK       0.112000
     21 C8           1.7770     1.6320    -0.5360 ca         1 UEK      -0.054300
     22 C21          2.8990     1.1280     0.1080 ca         1 UEK      -0.123000
     23 C12          4.0740     1.8700     0.2200 ca         1 UEK       0.076600
     24 C11          4.0940     3.1530    -0.3240 ca         1 UEK      -0.012600
     25 CL           5.5310     4.1140    -0.2100 cl         1 UEK      -0.111400
     26 C10          2.9780     3.6800    -0.9560 ca         1 UEK      -0.099000
     27 C9           1.8290     2.9190    -1.0680 ca         1 UEK      -0.130000
     28 N2           5.2000     1.3770     0.8840 ns         1 UEK      -0.488100
     29 C13          5.6840     0.1070     0.8070 c          1 UEK       0.675100
     30 O2           5.1710    -0.7680     0.1410 o          1 UEK      -0.565100
     31 C14          6.9190    -0.1150     1.6630 c3         1 UEK      -0.110100
     32 C15          7.6460    -1.3740     1.3040 ca         1 UEK      -0.091300
     33 C20          8.6660    -1.3580     0.3580 ca         1 UEK      -0.084000
     34 C19          9.3380    -2.5200     0.0040 ca         1 UEK      -0.168000
     35 C18          8.9700    -3.7040     0.6130 ca         1 UEK       0.142900
     36 F            9.6170    -4.8350     0.2820 f          1 UEK      -0.142900
     37 C17          7.9630    -3.7610     1.5560 ca         1 UEK      -0.168000
     38 C16          7.3050    -2.5870     1.8930 ca         1 UEK      -0.084000
     39 H25        -10.6360     0.5060     0.1100 ha         1 UEK       0.145000
     40 H27         -9.4930    -3.3320     1.6400 ha         1 UEK       0.145000
     41 H24         -8.4520     0.7060    -1.0020 ha         1 UEK       0.131500
     42 H28         -7.3110    -3.1200     0.5300 ha         1 UEK       0.131500
     43 H221        -5.9730    -2.0250    -1.2340 hc         1 UEK       0.044200
     44 H222        -6.4920    -0.5000    -1.9210 hc         1 UEK       0.044200
     45 H           -5.7950     0.6710     0.1640 h1         1 UEK       0.083700
     46 HN1         -4.6900    -1.9160     0.9250 hn         1 UEK       0.345300
     47 HN2         -4.5270    -0.5190     1.7350 hn         1 UEK       0.345300
     48 H11C        -3.6710    -1.0150    -1.2300 hc         1 UEK       0.062700
     49 H12C        -4.3380     0.4740    -1.8520 hc         1 UEK       0.062700
     50 H71C        -0.7590     2.4890    -0.1980 h1         1 UEK       0.061700
     51 H72C        -0.7310     1.2700     1.0770 h1         1 UEK       0.061700
     52 H31C        -1.3650    -1.1040    -1.6560 h1         1 UEK       0.052700
     53 H32C        -2.0010     0.1730    -2.6980 h1         1 UEK       0.052700
     54 H6           0.7310    -0.1660    -0.1370 hc         1 UEK       0.065700
     55 H4           0.0290     1.4130    -2.6380 hc         1 UEK       0.073700
     56 H51C         1.9720    -0.0810    -2.8620 h1         1 UEK       0.030700
     57 H52C         1.0490    -1.4160    -2.1700 h1         1 UEK       0.030700
     58 H1           0.9510    -1.4480    -4.4740 ho         1 UEK       0.411000
     59 H21          2.8530     0.1410     0.5470 ha         1 UEK       0.155000
     60 H9           0.9700     3.3460    -1.5710 ha         1 UEK       0.142000
     61 H2           5.7530     2.0470     1.3980 hn         1 UEK       0.328500
     62 H10          3.0140     4.6790    -1.3670 ha         1 UEK       0.151000
     63 H141         7.5820     0.7500     1.5880 hc         1 UEK       0.068700
     64 H142         6.5860    -0.1480     2.7050 hc         1 UEK       0.068700
     65 H20          8.9500    -0.4240    -0.1120 ha         1 UEK       0.134000
     66 H16          6.5170    -2.6220     2.6360 ha         1 UEK       0.134000
     67 H19         10.1320    -2.5020    -0.7300 ha         1 UEK       0.151000
     68 H17          7.6990    -4.7010     2.0220 ha         1 UEK       0.151000
@<TRIPOS>BOND
     1     1     2 1   
     2     2     3 ar  
     3     2     5 ar  
     4     3     4 ar  
     5     3    39 1   
     6     4     7 ar  
     7     4    41 1   
     8     5     6 ar  
     9     5    40 1   
    10     6     7 ar  
    11     6    42 1   
    12     7     8 1   
    13     8     9 1   
    14     8    43 1   
    15     8    44 1   
    16     9    10 1   
    17     9    11 1   
    18     9    45 1   
    19    10    46 1   
    20    10    47 1   
    21    11    12 1   
    22    11    48 1   
    23    11    49 1   
    24    12    13 2   
    25    12    14 1   
    26    14    15 1   
    27    14    20 1   
    28    15    16 1   
    29    15    50 1   
    30    15    51 1   
    31    16    17 1   
    32    16    21 1   
    33    16    54 1   
    34    17    18 1   
    35    17    20 1   
    36    17    55 1   
    37    18    19 1   
    38    18    56 1   
    39    18    57 1   
    40    19    58 1   
    41    20    52 1   
    42    20    53 1   
    43    21    22 ar  
    44    21    27 ar  
    45    22    23 ar  
    46    22    59 1   
    47    23    24 ar  
    48    23    28 1   
    49    24    25 1   
    50    24    26 ar  
    51    26    27 ar  
    52    26    62 1   
    53    27    60 1   
    54    28    29 1   
    55    28    61 1   
    56    29    30 2   
    57    29    31 1   
    58    31    32 1   
    59    31    63 1   
    60    31    64 1   
    61    32    33 ar  
    62    32    38 ar  
    63    33    34 ar  
    64    33    65 1   
    65    34    35 ar  
    66    34    67 1   
    67    35    36 1   
    68    35    37 ar  
    69    37    38 ar  
    70    37    68 1   
    71    38    66 1   
@<TRIPOS>SUBSTRUCTURE
     1 UEK         1 TEMP              0 ****  ****    0 ROOT
