@<TRIPOS>MOLECULE
UEM
   64    68     1     0     0
SMALL
abcg2


@<TRIPOS>ATOM
      1 C15         22.9530    21.7810    47.8280 cg         1 UEM      -0.094300
      2 C17         22.8260    22.1570    50.4280 ca         1 UEM       0.049000
      3 N           18.8270    12.6290    43.0650 n8         1 UEM      -1.012200
      4 CA          20.0900    12.2380    42.4550 c3         1 UEM       0.021500
      5 C           20.1740    10.6980    42.2700 c          1 UEM       0.719000
      6 O           19.1130    10.0550    42.4000 o          1 UEM      -0.725000
      7 CB          21.2670    12.7590    43.2800 c3         1 UEM      -0.043400
      8 OXT         21.2930    10.2380    41.9740 o          1 UEM      -0.725000
      9 C10         23.3950    23.8810    43.0990 ca         1 UEM       0.176900
     10 C12         23.2380    21.9730    44.1960 ca         1 UEM       0.156500
     11 C13         23.1570    22.6210    45.4260 ca         1 UEM      -0.239800
     12 C14         23.0430    21.6030    46.4320 cc         1 UEM       0.006100
     13 C16         22.8910    21.9630    49.0220 ch         1 UEM      -0.141000
     14 C18         22.0430    21.3240    51.2000 ca         1 UEM      -0.086000
     15 C19         21.9650    21.4930    52.5920 ca         1 UEM      -0.106000
     16 C20         22.6620    22.4970    53.2070 ca         1 UEM      -0.097000
     17 C21         23.4770    23.3730    52.4540 ca         1 UEM      -0.038000
     18 C22         23.5710    23.2080    51.0470 ca         1 UEM      -0.021000
     19 C23         24.4000    24.0850    50.3140 ca         1 UEM      -0.096000
     20 C24         25.0950    25.0830    50.9430 ca         1 UEM      -0.110000
     21 C25         24.9970    25.2520    52.3390 ca         1 UEM      -0.109000
     22 C26         24.2050    24.4150    53.0760 ca         1 UEM      -0.100000
     23 C27         23.0580    20.4060    45.7640 cd         1 UEM      -0.116100
     24 C29         23.2730    19.6090    43.4030 c5         1 UEM       0.272300
     25 C30         24.5210    18.7260    43.5240 c5         1 UEM       0.083300
     26 C32         24.0480    17.4590    42.8210 c5         1 UEM       0.154300
     27 C34         22.5950    17.3830    43.2820 c5         1 UEM       0.166300
     28 C36         22.3880    16.5770    44.5570 c3         1 UEM       0.029600
     29 C38         21.2530    14.2750    43.4040 c3         1 UEM       0.085600
     30 C8          23.1980    24.0280    45.3800 ca         1 UEM       0.431900
     31 N11         23.3590    22.5650    43.0090 nb         1 UEM      -0.223000
     32 N28         23.1760    20.6270    44.4180 na         1 UEM      -0.187400
     33 N7          23.1370    24.7910    46.4780 nv         1 UEM      -1.071900
     34 N9          23.3230    24.6320    44.1950 nb         1 UEM      -0.304000
     35 O31         25.6570    19.2510    42.9120 oh         1 UEM      -0.706000
     36 O33         24.0550    17.6100    41.4230 oh         1 UEM      -0.707000
     37 O35         22.1830    18.7360    43.5160 os         1 UEM      -0.454000
     38 S37         22.7130    14.8090    44.3480 ss         1 UEM      -0.461000
     39 H4          20.1990    12.6600    41.4400 h1         1 UEM       0.000700
     40 H5          21.2340    12.3120    44.2780 hc         1 UEM       0.061200
     41 H6          22.2000    12.4390    42.8120 hc         1 UEM       0.061200
     42 H8          23.4950    24.4230    42.1650 h5         1 UEM       0.043100
     43 H9          21.4800    20.5310    50.7240 ha         1 UEM       0.125000
     44 H10         21.3440    20.8240    53.1730 ha         1 UEM       0.117000
     45 H11         22.6000    22.6310    54.2800 ha         1 UEM       0.112000
     46 H12         24.4890    23.9630    49.2420 ha         1 UEM       0.120000
     47 H13         25.7260    25.7460    50.3660 ha         1 UEM       0.112000
     48 H14         25.5510    26.0440    52.8240 ha         1 UEM       0.111000
     49 H15         24.1260    24.5360    54.1490 ha         1 UEM       0.111000
     50 H16         22.9890    19.4080    46.1670 h4         1 UEM       0.232000
     51 H17         23.2740    20.1340    42.4420 h2         1 UEM       0.117700
     52 H18         24.7010    18.4930    44.5830 h1         1 UEM       0.050700
     53 H19         24.6180    16.5780    43.1370 h1         1 UEM       0.087700
     54 H20         21.9710    16.9680    42.4850 h1         1 UEM       0.103700
     55 H21         23.0570    16.9160    45.3510 h1         1 UEM       0.070700
     56 H22         21.3660    16.7100    44.9190 h1         1 UEM       0.070700
     57 H23         21.2620    14.7340    42.4130 h1         1 UEM       0.052200
     58 H24         20.3590    14.6160    43.9300 h1         1 UEM       0.052200
     59 H25         23.0670    25.7890    46.3780 hn         1 UEM       0.498000
     60 H26         22.8930    24.3970    47.3710 hn         1 UEM       0.498000
     61 H27         26.0180    19.9560    43.4590 ho         1 UEM       0.519000
     62 H28         24.9500    17.8340    41.1450 ho         1 UEM       0.522000
     63 H1          18.5130    13.5140    42.6910 hn         1 UEM       0.386000
     64 H2          18.1360    11.9350    42.8070 hn         1 UEM       0.386000
@<TRIPOS>BOND
     1     1    12 1   
     2     1    13 3   
     3     2    13 1   
     4     2    14 ar  
     5     2    18 ar  
     6     3     4 1   
     7     3    63 1   
     8     3    64 1   
     9     4     5 1   
    10     4     7 1   
    11     4    39 1   
    12     5     6 1   
    13     5     8 1   
    14     7    29 1   
    15     7    40 1   
    16     7    41 1   
    17     9    31 ar  
    18     9    34 ar  
    19     9    42 1   
    20    10    11 ar  
    21    10    31 ar  
    22    10    32 1   
    23    11    12 1   
    24    11    30 ar  
    25    12    23 2   
    26    14    15 ar  
    27    14    43 1   
    28    15    16 ar  
    29    15    44 1   
    30    16    17 ar  
    31    16    45 1   
    32    17    18 ar  
    33    17    22 ar  
    34    18    19 ar  
    35    19    20 ar  
    36    19    46 1   
    37    20    21 ar  
    38    20    47 1   
    39    21    22 ar  
    40    21    48 1   
    41    22    49 1   
    42    23    32 1   
    43    23    50 1   
    44    24    25 1   
    45    24    32 1   
    46    24    37 1   
    47    24    51 1   
    48    25    26 1   
    49    25    35 1   
    50    25    52 1   
    51    26    27 1   
    52    26    36 1   
    53    26    53 1   
    54    27    28 1   
    55    27    37 1   
    56    27    54 1   
    57    28    38 1   
    58    28    55 1   
    59    28    56 1   
    60    29    38 1   
    61    29    57 1   
    62    29    58 1   
    63    30    33 1   
    64    30    34 ar  
    65    33    59 1   
    66    33    60 1   
    67    35    61 1   
    68    36    62 1   
@<TRIPOS>SUBSTRUCTURE
     1 UEM         1 TEMP              0 ****  ****    0 ROOT
