@<TRIPOS>MOLECULE
UEM
   64    68     1     0     0
SMALL
No Charge or Current Charge


@<TRIPOS>ATOM
      1 C15         22.3510    21.9990    47.3720 cg         1 UEM      -0.094300
      2 C17         22.0800    22.3560    49.9840 ca         1 UEM       0.049000
      3 N           20.6760    12.4970    45.6080 n8         1 UEM      -1.012200
      4 CA          21.5080    12.3650    44.3560 c3         1 UEM       0.021500
      5 C           22.0980    10.9160    44.0600 c          1 UEM       0.719000
      6 O           21.3770    10.1140    43.4790 o          1 UEM      -0.725000
      7 CB          22.6140    13.4570    44.3070 c3         1 UEM      -0.043400
      8 OXT         23.2390    10.6470    44.4160 o          1 UEM      -0.725000
      9 C10         25.0410    23.4980    43.1990 ca         1 UEM       0.176900
     10 C12         23.3800    22.0550    43.8560 ca         1 UEM       0.156500
     11 C13         23.5260    22.5190    45.1410 ca         1 UEM      -0.239800
     12 C14         22.5800    21.8420    45.9790 cc         1 UEM       0.006100
     13 C16         22.2180    22.1610    48.5750 ch         1 UEM      -0.141000
     14 C18         20.8190    22.7430    50.4770 ca         1 UEM      -0.086000
     15 C19         20.6230    22.9510    51.8510 ca         1 UEM      -0.106000
     16 C20         21.6880    22.7740    52.7460 ca         1 UEM      -0.097000
     17 C21         22.9540    22.3870    52.2720 ca         1 UEM      -0.038000
     18 C22         23.1640    22.1740    50.8860 ca         1 UEM      -0.021000
     19 C23         24.4530    21.7840    50.4440 ca         1 UEM      -0.096000
     20 C24         25.5020    21.6140    51.3640 ca         1 UEM      -0.110000
     21 C25         25.2830    21.8280    52.7330 ca         1 UEM      -0.109000
     22 C26         24.0110    22.2140    53.1860 ca         1 UEM      -0.100000
     23 C27         21.8850    20.9800    45.1490 cd         1 UEM      -0.116100
     24 C29         21.9090    20.3390    42.6470 c5         1 UEM       0.272300
     25 C30         23.0300    19.6530    41.7700 c5         1 UEM       0.083300
     26 C32         22.4940    18.2000    41.5840 c5         1 UEM       0.154300
     27 C34         21.6900    18.0090    42.9060 c5         1 UEM       0.166300
     28 C36         22.5530    17.7140    44.1680 c3         1 UEM       0.029600
     29 C38         22.0760    14.9020    44.2410 c3         1 UEM       0.085600
     30 C8          24.4810    23.5070    45.4140 ca         1 UEM       0.431900
     31 N11         24.1430    22.5450    42.8560 nb         1 UEM      -0.223000
     32 N28         22.3820    21.0850    43.8230 na         1 UEM      -0.187400
     33 N7          24.6900    24.0230    46.6490 nv         1 UEM      -1.071900
     34 N9          25.2490    24.0070    44.4360 nb         1 UEM      -0.304000
     35 O31         23.2390    20.2820    40.4860 oh         1 UEM      -0.706000
     36 O33         21.6730    18.1560    40.4110 oh         1 UEM      -0.707000
     37 O35         21.0080    19.2750    43.0540 os         1 UEM      -0.454000
     38 S37         23.4740    16.1060    44.0740 ss         1 UEM      -0.461000
     39 H4          20.8230    12.5770    43.5240 h1         1 UEM       0.000700
     40 H5          23.2740    13.3550    45.1770 hc         1 UEM       0.061200
     41 H6          23.2340    13.2860    43.4190 hc         1 UEM       0.061200
     42 H8          25.6590    23.8970    42.3970 h5         1 UEM       0.043100
     43 H9          19.9860    22.8840    49.7920 ha         1 UEM       0.125000
     44 H10         19.6450    23.2510    52.2220 ha         1 UEM       0.117000
     45 H11         21.5270    22.9380    53.8100 ha         1 UEM       0.112000
     46 H12         24.6590    21.6090    49.3920 ha         1 UEM       0.120000
     47 H13         26.4870    21.3150    51.0130 ha         1 UEM       0.112000
     48 H14         26.0960    21.6950    53.4430 ha         1 UEM       0.111000
     49 H15         23.8490    22.3780    54.2490 ha         1 UEM       0.111000
     50 H16         21.0760    20.3040    45.4060 h4         1 UEM       0.232000
     51 H17         21.3510    21.0680    42.0440 h2         1 UEM       0.117700
     52 H18         23.9760    19.6210    42.3310 h1         1 UEM       0.050700
     53 H19         23.3200    17.4780    41.5040 h1         1 UEM       0.087700
     54 H20         20.9420    17.2120    42.8020 h1         1 UEM       0.103700
     55 H21         23.2860    18.5160    44.3160 h1         1 UEM       0.070700
     56 H22         21.8990    17.6950    45.0500 h1         1 UEM       0.070700
     57 H23         21.4050    15.0060    43.3790 h1         1 UEM       0.052200
     58 H24         21.5130    15.1360    45.1540 h1         1 UEM       0.052200
     59 H25         25.2020    24.8980    46.7240 hn         1 UEM       0.498000
     60 H26         24.0000    23.8260    47.3690 hn         1 UEM       0.498000
     61 H27         23.7750    21.0980    40.6410 ho         1 UEM       0.519000
     62 H28         21.9890    18.9560    39.9160 ho         1 UEM       0.522000
     63 H1          20.1980    13.4050    45.6110 hn         1 UEM       0.386000
     64 H2          19.9050    11.8180    45.5700 hn         1 UEM       0.386000
@<TRIPOS>BOND
     1     1    12 1   
     2     1    13 3   
     3     2    13 1   
     4     2    14 ar  
     5     2    18 ar  
     6     3     4 1   
     7     3    63 1   
     8     3    64 1   
     9     4     5 1   
    10     4     7 1   
    11     4    39 1   
    12     5     6 1   
    13     5     8 1   
    14     7    29 1   
    15     7    40 1   
    16     7    41 1   
    17     9    31 ar  
    18     9    34 ar  
    19     9    42 1   
    20    10    11 ar  
    21    10    31 ar  
    22    10    32 1   
    23    11    12 1   
    24    11    30 ar  
    25    12    23 2   
    26    14    15 ar  
    27    14    43 1   
    28    15    16 ar  
    29    15    44 1   
    30    16    17 ar  
    31    16    45 1   
    32    17    18 ar  
    33    17    22 ar  
    34    18    19 ar  
    35    19    20 ar  
    36    19    46 1   
    37    20    21 ar  
    38    20    47 1   
    39    21    22 ar  
    40    21    48 1   
    41    22    49 1   
    42    23    32 1   
    43    23    50 1   
    44    24    25 1   
    45    24    32 1   
    46    24    37 1   
    47    24    51 1   
    48    25    26 1   
    49    25    35 1   
    50    25    52 1   
    51    26    27 1   
    52    26    36 1   
    53    26    53 1   
    54    27    28 1   
    55    27    37 1   
    56    27    54 1   
    57    28    38 1   
    58    28    55 1   
    59    28    56 1   
    60    29    38 1   
    61    29    57 1   
    62    29    58 1   
    63    30    33 1   
    64    30    34 ar  
    65    33    59 1   
    66    33    60 1   
    67    35    61 1   
    68    36    62 1   
@<TRIPOS>SUBSTRUCTURE
     1 UEM         1 TEMP              0 ****  ****    0 ROOT
