@<TRIPOS>MOLECULE
UEN
   44    47     1     0     0
SMALL
abcg2


@<TRIPOS>ATOM
      1 CAJ          2.7490     3.6770    -1.1650 c6         1 UEN      -0.070900
      2 CAK          0.6740     3.0020     0.8090 c6         1 UEN      -0.091400
      3 CAX          1.5000     1.9140     0.1300 c6         1 UEN       0.240500
      4 CAI          1.4540     4.3090     0.8980 c6         1 UEN      -0.070900
      5 CAH          1.9370     4.7660    -0.4740 c6         1 UEN      -0.077400
      6 CAL          1.9710     2.3670    -1.2510 c6         1 UEN      -0.091400
      7 NAO          0.7300     0.6880     0.0760 nu         1 UEN      -0.926100
      8 C5           0.4340    -1.7070     0.0330 ca         1 UEN      -0.291800
      9 C4           1.1410    -2.9130    -0.0180 ca         1 UEN       0.190500
     10 C6           1.2490    -0.5500     0.0930 ca         1 UEN       0.472900
     11 N1           2.5690    -0.6820     0.1740 nb         1 UEN      -0.354000
     12 CAT         -0.9650    -2.0280    -0.0630 cc         1 UEN      -0.048400
     13 C2           3.1070    -1.9100     0.1630 ca         1 UEN       0.421900
     14 NAA          4.4660    -1.9580     0.2250 nv         1 UEN      -1.046900
     15 N3           2.4640    -3.0640     0.0480 nb         1 UEN      -0.304000
     16 CAG         -1.0300    -3.3880    -0.1820 cd         1 UEN      -0.174100
     17 CAD         -3.3270     0.6680     1.1070 ca         1 UEN      -0.151500
     18 CAQ         -4.3250     0.5520     0.1600 ca         1 UEN       0.166000
     19 CAF         -2.2330    -0.1820     1.0270 ca         1 UEN      -0.086000
     20 CAC         -4.2620    -0.3810    -0.8570 ca         1 UEN      -0.151500
     21 CAE         -3.1540    -1.2120    -0.9310 ca         1 UEN      -0.086000
     22 CAS         -2.1220    -1.1280     0.0050 ca         1 UEN      -0.029800
     23 NAP          0.2390    -3.9130    -0.1540 na         1 UEN      -0.320400
     24 HAK1        -0.2480     3.1710     0.2390 hc         1 UEN       0.046450
     25 HAK2         0.3720     2.6660     1.8040 hc         1 UEN       0.046450
     26 HAI1         0.8300     5.0790     1.3590 hc         1 UEN       0.041450
     27 HAI2         2.3140     4.1730     1.5630 hc         1 UEN       0.041450
     28 HAX          2.3810     1.7140     0.7470 h1         1 UEN       0.079700
     29 HAH1         2.5320     5.6780    -0.3800 hc         1 UEN       0.040200
     30 HAH2         1.0710     5.0250    -1.0940 hc         1 UEN       0.040200
     31 HAJ1         3.0460     4.0000    -2.1650 hc         1 UEN       0.041450
     32 HAJ2         3.6780     3.5080    -0.6080 hc         1 UEN       0.041450
     33 HAL1         1.1000     2.4950    -1.9030 hc         1 UEN       0.046450
     34 HAL2         2.5890     1.5850    -1.7010 hc         1 UEN       0.046450
     35 HAO         -0.2580     0.7780    -0.0970 hn         1 UEN       0.500000
     36 HAA1         4.9350    -1.1400     0.5730 hn         1 UEN       0.480000
     37 HAA2         4.8810    -2.8360     0.4890 hn         1 UEN       0.480000
     38 HAG         -1.8910    -4.0310    -0.2520 h4         1 UEN       0.218000
     39 HAF         -1.4660    -0.1170     1.7890 ha         1 UEN       0.123000
     40 HAC         -5.0580    -0.4520    -1.5880 ha         1 UEN       0.132000
     41 HAD         -3.4040     1.3980     1.9020 ha         1 UEN       0.132000
     42 HAP          0.4640    -4.8930    -0.2030 hn         1 UEN       0.361000
     43 HAE         -3.0870    -1.9290    -1.7380 ha         1 UEN       0.123000
     44 FAB         -5.3890     1.3690     0.2300 f          1 UEN      -0.180000
@<TRIPOS>BOND
     1     1     5 1   
     2     1     6 1   
     3     1    31 1   
     4     1    32 1   
     5     2     3 1   
     6     2     4 1   
     7     2    24 1   
     8     2    25 1   
     9     3     6 1   
    10     3     7 1   
    11     3    28 1   
    12     4     5 1   
    13     4    26 1   
    14     4    27 1   
    15     5    29 1   
    16     5    30 1   
    17     6    33 1   
    18     6    34 1   
    19     7    10 1   
    20     7    35 1   
    21     8     9 ar  
    22     8    10 ar  
    23     8    12 1   
    24     9    15 ar  
    25     9    23 1   
    26    10    11 ar  
    27    11    13 ar  
    28    12    16 2   
    29    12    22 1   
    30    13    14 1   
    31    13    15 ar  
    32    14    36 1   
    33    14    37 1   
    34    16    23 1   
    35    16    38 1   
    36    17    18 ar  
    37    17    19 ar  
    38    17    41 1   
    39    18    20 ar  
    40    18    44 1   
    41    19    22 ar  
    42    19    39 1   
    43    20    21 ar  
    44    20    40 1   
    45    21    22 ar  
    46    21    43 1   
    47    23    42 1   
@<TRIPOS>SUBSTRUCTURE
     1 UEN         1 TEMP              0 ****  ****    0 ROOT
