@<TRIPOS>MOLECULE
UEN
   44    47     1     0     0
SMALL
No Charge or Current Charge


@<TRIPOS>ATOM
      1 CAJ          2.4270     3.5240    -1.3590 c6         1 UEN      -0.070900
      2 CAK          0.5860     3.0030     0.9340 c6         1 UEN      -0.091400
      3 CAX          1.4840     1.8770     0.3600 c6         1 UEN       0.240500
      4 CAI          1.2290     4.3970     0.7230 c6         1 UEN      -0.070900
      5 CAH          1.5390     4.6490    -0.7730 c6         1 UEN      -0.077400
      6 CAL          1.7830     2.1310    -1.1430 c6         1 UEN      -0.091400
      7 NAO          0.7930     0.5920     0.5240 nu         1 UEN      -0.926100
      8 C5           0.5880    -1.7780     0.0710 ca         1 UEN      -0.291800
      9 C4           1.1910    -2.9930    -0.1260 ca         1 UEN       0.190500
     10 C6           1.3680    -0.6580     0.3800 ca         1 UEN       0.472900
     11 N1           2.7000    -0.7780     0.5150 nb         1 UEN      -0.354000
     12 CAT         -0.8170    -1.9450    -0.1550 cc         1 UEN      -0.048400
     13 C2           3.1920    -2.0100     0.3220 ca         1 UEN       0.421900
     14 NAA          4.5290    -2.1360     0.4600 nv         1 UEN      -1.046900
     15 N3           2.5220    -3.1320     0.0030 nb         1 UEN      -0.304000
     16 CAG         -1.0260    -3.2680    -0.4960 cd         1 UEN      -0.174100
     17 CAD         -3.1530     0.6320     1.3220 ca         1 UEN      -0.151500
     18 CAQ         -4.0420     0.8300     0.2550 ca         1 UEN       0.166000
     19 CAF         -2.0960    -0.2870     1.1910 ca         1 UEN      -0.086000
     20 CAC         -3.8840     0.1130    -0.9400 ca         1 UEN      -0.151500
     21 CAE         -2.8260    -0.8050    -1.0720 ca         1 UEN      -0.086000
     22 CAS         -1.9210    -1.0020    -0.0110 ca         1 UEN      -0.029800
     23 NAP          0.2280    -3.9320    -0.4740 na         1 UEN      -0.320400
     24 HAK1        -0.4010     2.9800     0.4520 hc         1 UEN       0.046450
     25 HAK2         0.4160     2.8350     2.0060 hc         1 UEN       0.046450
     26 HAI1         0.5560     5.1790     1.1010 hc         1 UEN       0.041450
     27 HAI2         2.1550     4.4710     1.3110 hc         1 UEN       0.041450
     28 HAX          2.4340     1.8790     0.9200 h1         1 UEN       0.079700
     29 HAH1         2.0400     5.6200    -0.8920 hc         1 UEN       0.040200
     30 HAH2         0.6000     4.7120    -1.3400 hc         1 UEN       0.040200
     31 HAJ1         2.5900     3.6970    -2.4320 hc         1 UEN       0.041450
     32 HAJ2         3.4190     3.5500    -0.8850 hc         1 UEN       0.041450
     33 HAL1         0.8550     2.0630    -1.7270 hc         1 UEN       0.046450
     34 HAL2         2.4550     1.3540    -1.5310 hc         1 UEN       0.046450
     35 HAO         -0.2120     0.5790     0.3690 hn         1 UEN       0.500000
     36 HAA1         5.0350    -1.3800     0.9120 hn         1 UEN       0.480000
     37 HAA2         4.9200    -3.0700     0.5490 hn         1 UEN       0.480000
     38 HAG         -1.9570    -3.7820    -0.7240 h4         1 UEN       0.218000
     39 HAF         -1.4160    -0.4490     2.0250 ha         1 UEN       0.123000
     40 HAC         -4.5790     0.2700    -1.7620 ha         1 UEN       0.132000
     41 HAD         -3.2850     1.1860     2.2480 ha         1 UEN       0.132000
     42 HAP          0.4020    -4.9120    -0.6720 hn         1 UEN       0.361000
     43 HAE         -2.7010    -1.3550    -2.0020 ha         1 UEN       0.123000
     44 FAB         -5.0570     1.7120     0.3810 f          1 UEN      -0.180000
@<TRIPOS>BOND
     1     1     5 1   
     2     1     6 1   
     3     1    31 1   
     4     1    32 1   
     5     2     3 1   
     6     2     4 1   
     7     2    24 1   
     8     2    25 1   
     9     3     6 1   
    10     3     7 1   
    11     3    28 1   
    12     4     5 1   
    13     4    26 1   
    14     4    27 1   
    15     5    29 1   
    16     5    30 1   
    17     6    33 1   
    18     6    34 1   
    19     7    10 1   
    20     7    35 1   
    21     8     9 ar  
    22     8    10 ar  
    23     8    12 1   
    24     9    15 ar  
    25     9    23 1   
    26    10    11 ar  
    27    11    13 ar  
    28    12    16 2   
    29    12    22 1   
    30    13    14 1   
    31    13    15 ar  
    32    14    36 1   
    33    14    37 1   
    34    16    23 1   
    35    16    38 1   
    36    17    18 ar  
    37    17    19 ar  
    38    17    41 1   
    39    18    20 ar  
    40    18    44 1   
    41    19    22 ar  
    42    19    39 1   
    43    20    21 ar  
    44    20    40 1   
    45    21    22 ar  
    46    21    43 1   
    47    23    42 1   
@<TRIPOS>SUBSTRUCTURE
     1 UEN         1 TEMP              0 ****  ****    0 ROOT
