@<TRIPOS>MOLECULE
UEO
   51    54     1     0     0
SMALL
abcg2


@<TRIPOS>ATOM
      1 N1          21.4410     7.2330    -0.3320 nc         1 UEO      -0.770000
      2 N3          22.9590     7.3990    -4.2310 nc         1 UEO      -0.526800
      3 C4          21.0830     6.2540    -3.9040 cd         1 UEO      -0.151000
      4 C5          22.0030     6.4360    -6.2160 c3         1 UEO       0.071900
      5 C6          22.6600     7.4450    -2.9470 cd         1 UEO       0.285900
      6 C7          19.7320     5.8050    -1.1920 cd         1 UEO      -0.184000
      7 C8          18.0150     5.2220     1.7240 cc         1 UEO       0.353500
      8 C10         19.7770     6.3710     1.1350 cd         1 UEO      -0.179000
      9 C13         25.0270     8.3020     0.8750 c3         1 UEO      -0.098400
     10 C17         23.1420    13.6450     0.2820 c3         1 UEO      -0.077100
     11 C1          20.9390     7.1450     0.8530 cd         1 UEO       0.643300
     12 C11         22.6440     8.5660     1.7210 c3         1 UEO       0.186300
     13 C12         23.8900     7.6790     1.6820 c3         1 UEO      -0.092400
     14 C14         25.6500     9.5380     1.5070 c3         1 UEO       0.098000
     15 C16         23.3940    12.6020     1.3580 c3         1 UEO      -0.154400
     16 C18         23.9110    10.3520     3.0480 c3         1 UEO       0.110000
     17 C19         22.6040     9.5730     2.8610 c3         1 UEO      -0.104400
     18 C2          20.8420     6.5690    -1.3690 cc         1 UEO       0.455500
     19 C3          21.4760     6.7350    -2.6680 cc         1 UEO      -0.267500
     20 C9          19.0010     6.0580     2.2400 cc         1 UEO      -0.337600
     21 N2          21.9950     6.6750    -4.7920 na         1 UEO       0.136800
     22 N4          19.2170     5.7210     0.0720 na         1 UEO       0.353400
     23 N5          18.1490     5.0210     0.4140 nd         1 UEO      -0.565100
     24 N6          24.6790    10.5710     1.8350 n          1 UEO      -0.416800
     25 O1          21.4590     7.7670     1.8980 os         1 UEO      -0.460300
     26 O2          25.0270    11.6550    -0.1120 o          1 UEO      -0.597100
     27 H1          20.2370     5.6570    -4.2050 h4         1 UEO       0.154000
     28 H2          22.9350     5.9580    -6.5110 h1         1 UEO       0.057700
     29 H4          21.1750     5.7810    -6.4690 h1         1 UEO       0.057700
     30 H3          21.8940     7.3730    -6.7590 h1         1 UEO       0.057700
     31 H5          23.2930     7.9780    -2.2540 h4         1 UEO       0.053100
     32 H6          19.2190     5.2540    -1.9650 h4         1 UEO       0.165000
     33 H7          17.2020     4.7500     2.2540 h4         1 UEO       0.047800
     34 H12         25.8170     7.5600     0.7390 hc         1 UEO       0.057200
     35 H13         24.6590     8.5480    -0.1270 hc         1 UEO       0.057200
     36 H19         22.3900    14.3540     0.6250 hc         1 UEO       0.042033
     37 H18         24.0440    14.2070     0.0430 hc         1 UEO       0.042033
     38 H20         22.7760    13.1930    -0.6380 hc         1 UEO       0.042033
     39 H9          22.5590     9.0940     0.7670 h1         1 UEO       0.076700
     40 H10         24.2220     7.4430     2.6990 hc         1 UEO       0.053200
     41 H11         23.6350     6.7280     1.2120 hc         1 UEO       0.053200
     42 H15         26.1550     9.2570     2.4340 h1         1 UEO       0.058200
     43 H14         26.4090     9.9530     0.8470 h1         1 UEO       0.058200
     44 H17         22.4560    12.1020     1.6110 hc         1 UEO       0.054700
     45 H16         23.7230    13.0900     2.2800 hc         1 UEO       0.054700
     46 H21         24.5620     9.8070     3.7330 h1         1 UEO       0.051200
     47 H22         23.6970    11.3010     3.5390 h1         1 UEO       0.051200
     48 H23         22.3910     9.0550     3.8000 hc         1 UEO       0.058200
     49 H24         21.7720    10.2590     2.6870 hc         1 UEO       0.058200
     50 H8          19.1360     6.3860     3.2560 ha         1 UEO       0.224000
     51 C15         24.4310    11.5700     0.9540 c          1 UEO       0.601100
@<TRIPOS>BOND
     1     1    11 2   
     2     1    18 1   
     3     2     5 2   
     4     2    21 1   
     5     3    19 2   
     6     3    21 1   
     7     3    27 1   
     8     4    21 1   
     9     4    28 1   
    10     4    29 1   
    11     4    30 1   
    12     5    19 1   
    13     5    31 1   
    14     6    18 2   
    15     6    22 1   
    16     6    32 1   
    17     7    20 1   
    18     7    23 2   
    19     7    33 1   
    20     8    11 1   
    21     8    20 2   
    22     8    22 1   
    23     9    13 1   
    24     9    14 1   
    25     9    34 1   
    26     9    35 1   
    27    10    15 1   
    28    10    36 1   
    29    10    37 1   
    30    10    38 1   
    31    11    25 1   
    32    12    13 1   
    33    12    17 1   
    34    12    25 1   
    35    12    39 1   
    36    13    40 1   
    37    13    41 1   
    38    14    24 1   
    39    14    42 1   
    40    14    43 1   
    41    15    44 1   
    42    15    45 1   
    43    15    51 1   
    44    16    17 1   
    45    16    24 1   
    46    16    46 1   
    47    16    47 1   
    48    17    48 1   
    49    17    49 1   
    50    18    19 1   
    51    20    50 1   
    52    22    23 1   
    53    24    51 1   
    54    26    51 2   
@<TRIPOS>SUBSTRUCTURE
     1 UEO         1 TEMP              0 ****  ****    0 ROOT
