@<TRIPOS>MOLECULE
UEO
   51    54     1     0     0
SMALL
No Charge or Current Charge


@<TRIPOS>ATOM
      1 N1          21.2450     7.4250    -0.5000 nc         1 UEO      -0.770000
      2 N3          22.4120     7.8150    -4.4650 nc         1 UEO      -0.526800
      3 C4          20.8960     6.0870    -3.9470 cd         1 UEO      -0.151000
      4 C5          21.6660     6.4060    -6.3260 c3         1 UEO       0.071900
      5 C6          22.1190     7.7950    -3.1710 cd         1 UEO       0.285900
      6 C7          19.8710     5.5170    -1.2980 cd         1 UEO      -0.184000
      7 C8          18.4980     4.6050     1.6990 cc         1 UEO       0.353500
      8 C10         19.8980     6.1450     0.9900 cd         1 UEO      -0.179000
      9 C13         24.9700     8.2020     1.2110 c3         1 UEO      -0.098400
     10 C17         23.7710    13.9080     0.1400 c3         1 UEO      -0.077100
     11 C1          20.8080     7.1910     0.7290 cd         1 UEO       0.643300
     12 C11         22.4660     8.7130     1.6950 c3         1 UEO       0.186300
     13 C12         23.6440     7.7060     1.8450 c3         1 UEO      -0.092400
     14 C14         25.6020     9.4330     1.8910 c3         1 UEO       0.098000
     15 C16         23.7400    12.8400     1.2570 c3         1 UEO      -0.154400
     16 C18         23.7140    10.5220     3.1310 c3         1 UEO       0.110000
     17 C19         22.3910     9.7940     2.8030 c3         1 UEO      -0.104400
     18 C2          20.7670     6.5730    -1.4920 cc         1 UEO       0.455500
     19 C3          21.2400     6.8030    -2.8320 cc         1 UEO      -0.267500
     20 C9          19.2950     5.6970     2.1280 cc         1 UEO      -0.337600
     21 N2          21.6460     6.7580    -4.8980 na         1 UEO       0.136800
     22 N4          19.4490     5.3390     0.0040 na         1 UEO       0.353400
     23 N5          18.5670     4.3530     0.3940 nd         1 UEO      -0.565100
     24 N6          24.6700    10.5800     2.0010 n          1 UEO      -0.416800
     25 O1          21.2230     7.9830     1.7670 os         1 UEO      -0.460300
     26 O2          25.6070    11.7110     0.2340 o          1 UEO      -0.597100
     27 H1          20.2490     5.2390    -4.1430 h4         1 UEO       0.154000
     28 H2          22.6880     6.1490    -6.6260 h1         1 UEO       0.057700
     29 H4          21.0090     5.5470    -6.5080 h1         1 UEO       0.057700
     30 H3          21.3150     7.2600    -6.9180 h1         1 UEO       0.057700
     31 H5          22.5830     8.5340    -2.5280 h4         1 UEO       0.053100
     32 H6          19.4880     4.8450    -2.0500 h4         1 UEO       0.165000
     33 H7          17.8630     3.9820     2.3160 h4         1 UEO       0.047800
     34 H12         25.7000     7.3840     1.2310 hc         1 UEO       0.057200
     35 H13         24.7950     8.4330     0.1520 hc         1 UEO       0.057200
     36 H19         23.0170    14.6810     0.3280 hc         1 UEO       0.042033
     37 H18         24.7530    14.3940     0.0920 hc         1 UEO       0.042033
     38 H20         23.5600    13.4540    -0.8360 hc         1 UEO       0.042033
     39 H9          22.5570     9.2290     0.7290 h1         1 UEO       0.076700
     40 H10         23.8020     7.4740     2.9060 hc         1 UEO       0.053200
     41 H11         23.3850     6.7580     1.3600 hc         1 UEO       0.053200
     42 H15         25.9330     9.1470     2.8980 h1         1 UEO       0.058200
     43 H14         26.5050     9.7240     1.3390 h1         1 UEO       0.058200
     44 H17         22.7370    12.4160     1.3710 hc         1 UEO       0.054700
     45 H16         23.8960    13.3010     2.2390 hc         1 UEO       0.054700
     46 H21         24.1970     9.9780     3.9530 h1         1 UEO       0.051200
     47 H22         23.5010    11.5240     3.5230 h1         1 UEO       0.051200
     48 H23         22.0040     9.3510     3.7280 hc         1 UEO       0.058200
     49 H24         21.6530    10.5410     2.4890 hc         1 UEO       0.058200
     50 H8          19.3870     6.0690     3.1450 ha         1 UEO       0.224000
     51 C15         24.7530    11.6830     1.1130 c          1 UEO       0.601100
@<TRIPOS>BOND
     1     1    11 2   
     2     1    18 1   
     3     2     5 2   
     4     2    21 1   
     5     3    19 2   
     6     3    21 1   
     7     3    27 1   
     8     4    21 1   
     9     4    28 1   
    10     4    29 1   
    11     4    30 1   
    12     5    19 1   
    13     5    31 1   
    14     6    18 2   
    15     6    22 1   
    16     6    32 1   
    17     7    20 1   
    18     7    23 2   
    19     7    33 1   
    20     8    11 1   
    21     8    20 2   
    22     8    22 1   
    23     9    13 1   
    24     9    14 1   
    25     9    34 1   
    26     9    35 1   
    27    10    15 1   
    28    10    36 1   
    29    10    37 1   
    30    10    38 1   
    31    11    25 1   
    32    12    13 1   
    33    12    17 1   
    34    12    25 1   
    35    12    39 1   
    36    13    40 1   
    37    13    41 1   
    38    14    24 1   
    39    14    42 1   
    40    14    43 1   
    41    15    44 1   
    42    15    45 1   
    43    15    51 1   
    44    16    17 1   
    45    16    24 1   
    46    16    46 1   
    47    16    47 1   
    48    17    48 1   
    49    17    49 1   
    50    18    19 1   
    51    20    50 1   
    52    22    23 1   
    53    24    51 1   
    54    26    51 2   
@<TRIPOS>SUBSTRUCTURE
     1 UEO         1 TEMP              0 ****  ****    0 ROOT
