@<TRIPOS>MOLECULE
UEQ
   84    90     1     0     0
SMALL
abcg2


@<TRIPOS>ATOM
      1 C10        -43.4410    28.3260    21.5490 c3         1 UEQ       0.221100
      2 C13        -42.6820    25.7700    20.2890 cx         1 UEQ      -0.151700
      3 C15        -41.8200    24.9090    19.4180 cx         1 UEQ      -0.126400
      4 C17        -43.0600    23.7900    22.5770 cy         1 UEQ      -0.071900
      5 C20        -43.6480    26.3950    23.1270 cy         1 UEQ       0.169800
      6 C21        -43.1530    29.8170    23.5710 ca         1 UEQ      -0.111500
      7 C22        -43.4880    30.9410    24.3110 ca         1 UEQ      -0.075500
      8 C24        -44.2170    36.3570    24.1460 c6         1 UEQ      -0.103400
      9 C26        -42.0460    37.3410    23.4300 c6         1 UEQ       0.211800
     10 C02        -43.6100    36.0830    25.5250 c6         1 UEQ       0.131000
     11 C03        -44.1760    34.8000    26.1600 c3         1 UEQ       0.073000
     12 C06        -44.5270    31.7760    23.9070 ca         1 UEQ      -0.156600
     13 C07        -45.2420    31.4400    22.7590 ca         1 UEQ      -0.075500
     14 C08        -44.8990    30.3210    22.0190 ca         1 UEQ      -0.111500
     15 C09        -43.8430    29.4990    22.4060 ca         1 UEQ      -0.058300
     16 C12        -42.1680    26.1410    21.6510 cy         1 UEQ       0.211500
     17 C14        -42.0260    26.3520    19.0730 cx         1 UEQ      -0.126400
     18 C16        -42.6810    25.2550    22.8110 cy         1 UEQ      -0.097000
     19 C18        -41.7000    23.3850    23.1770 cy         1 UEQ      -0.093400
     20 C19        -41.6230    24.7830    23.8220 cy         1 UEQ      -0.071900
     21 C25        -43.5540    37.5450    23.4530 c6         1 UEQ      -0.104400
     22 C27        -42.0820    35.9860    25.4170 c6         1 UEQ       0.225800
     23 C29        -41.0450    38.1960    25.5060 ca         1 UEQ       0.416900
     24 C31        -40.1280    38.9270    27.4450 ca         1 UEQ       0.190900
     25 C33        -40.3690    40.4640    25.8170 ca         1 UEQ       0.400900
     26 C35        -40.6480    42.2540    24.1480 c3         1 UEQ       0.283100
     27 C36        -42.1500    42.2640    23.9560 ca         1 UEQ      -0.114300
     28 C37        -43.0040    42.6230    24.9940 ca         1 UEQ      -0.098500
     29 C38        -44.3790    42.6400    24.8020 ca         1 UEQ      -0.110000
     30 C39        -44.9180    42.2970    23.5680 ca         1 UEQ      -0.107000
     31 C40        -44.0730    41.9380    22.5280 ca         1 UEQ      -0.110000
     32 C41        -42.6980    41.9200    22.7240 ca         1 UEQ      -0.098500
     33 C42        -40.9250    39.4900    24.9890 ca         1 UEQ      -0.358000
     34 N04        -43.9730    33.6010    25.3840 ns         1 UEQ      -0.503900
     35 N11        -42.8210    27.2810    22.3130 nq         1 UEQ      -0.729600
     36 N28        -41.5280    37.1590    24.7730 nh         1 UEQ      -0.758300
     37 N30        -40.6400    37.9250    26.7600 nb         1 UEQ      -0.279000
     38 N32        -39.9590    40.1780    27.0670 nb         1 UEQ      -0.294000
     39 N34        -40.2140    41.7430    25.4200 nu         1 UEQ      -0.941100
     40 O01        -43.8630    37.1580    26.4080 oh         1 UEQ      -0.643000
     41 O23        -46.0730    33.4470    24.5650 o          1 UEQ      -0.606100
     42 H1         -44.3210    27.9810    20.9830 h1         1 UEQ       0.043200
     43 H2         -42.7220    28.6780    20.8010 h1         1 UEQ       0.043200
     44 H3         -43.7530    25.5980    20.2180 hc         1 UEQ       0.080700
     45 H4         -42.2980    24.1590    18.8020 hc         1 UEQ       0.072200
     46 H5         -40.8520    24.6130    19.8070 hc         1 UEQ       0.072200
     47 H6         -43.8900    23.4910    23.2210 hc         1 UEQ       0.053700
     48 H7         -43.2860    23.4810    21.5560 hc         1 UEQ       0.053700
     49 H8         -43.7570    26.6830    24.1760 h1         1 UEQ       0.049200
     50 H9         -44.6510    26.2210    22.7090 h1         1 UEQ       0.049200
     51 H10        -42.3470    29.1770    23.9050 ha         1 UEQ       0.124500
     52 H11        -42.9350    31.1380    25.2220 ha         1 UEQ       0.121000
     53 H12        -45.2960    36.5150    24.2440 hc         1 UEQ       0.054200
     54 H13        -44.0910    35.4730    23.5160 hc         1 UEQ       0.054200
     55 H14        -41.5300    38.1510    22.9210 h1         1 UEQ       0.053200
     56 H15        -41.8140    36.4310    22.8660 h1         1 UEQ       0.053200
     57 H16        -45.2480    34.9280    26.3210 h1         1 UEQ       0.067200
     58 H17        -43.7150    34.6640    27.1420 h1         1 UEQ       0.067200
     59 H18        -46.0660    32.0610    22.4350 ha         1 UEQ       0.121000
     60 H19        -45.4620    30.0820    21.1240 ha         1 UEQ       0.124500
     61 H20        -41.0760    26.2490    21.5960 h1         1 UEQ       0.071700
     62 H21        -41.1980    27.0350    19.2240 hc         1 UEQ       0.072200
     63 H22        -42.6480    26.5910    18.2200 hc         1 UEQ       0.072200
     64 H23        -41.6740    22.5200    23.8400 hc         1 UEQ       0.049700
     65 H24        -40.9410    23.2520    22.4050 hc         1 UEQ       0.049700
     66 H25        -40.6610    25.2990    23.8200 hc         1 UEQ       0.053700
     67 H26        -42.0160    24.7800    24.8400 hc         1 UEQ       0.053700
     68 H27        -43.7970    38.4820    23.9610 hc         1 UEQ       0.054200
     69 H28        -43.9280    37.6350    22.4310 hc         1 UEQ       0.054200
     70 H29        -41.8090    35.1100    24.8210 h1         1 UEQ       0.071200
     71 H30        -41.6430    35.8620    26.4050 h1         1 UEQ       0.071200
     72 H31        -39.8030    38.6900    28.4550 h5         1 UEQ       0.037100
     73 H32        -40.1840    41.6900    23.3320 h1         1 UEQ       0.053700
     74 H33        -40.2640    43.2720    24.0670 h1         1 UEQ       0.053700
     75 H34        -42.5960    42.8840    25.9630 ha         1 UEQ       0.113000
     76 H35        -45.0310    42.9190    25.6200 ha         1 UEQ       0.113500
     77 H36        -45.9910    42.3070    23.4210 ha         1 UEQ       0.113000
     78 H37        -44.4820    41.6640    21.5640 ha         1 UEQ       0.113500
     79 H38        -42.0440    41.6260    21.9100 ha         1 UEQ       0.113000
     80 H39        -41.2790    39.7440    24.0040 ha         1 UEQ       0.130000
     81 H40        -43.0440    33.2130    25.3700 hn         1 UEQ       0.316500
     82 H42        -39.8530    42.3860    26.1050 hn         1 UEQ       0.505000
     83 H43        -44.8030    37.3710    26.3720 ho         1 UEQ       0.443000
     84 C05        -44.9340    33.0090    24.6500 c          1 UEQ       0.615700
@<TRIPOS>BOND
     1     1    15 1   
     2     1    35 1   
     3     1    42 1   
     4     1    43 1   
     5     2     3 1   
     6     2    16 1   
     7     2    17 1   
     8     2    44 1   
     9     3    17 1   
    10     3    45 1   
    11     3    46 1   
    12     4    18 1   
    13     4    19 1   
    14     4    47 1   
    15     4    48 1   
    16     5    18 1   
    17     5    35 1   
    18     5    49 1   
    19     5    50 1   
    20     6     7 ar  
    21     6    15 ar  
    22     6    51 1   
    23     7    12 ar  
    24     7    52 1   
    25     8    10 1   
    26     8    21 1   
    27     8    53 1   
    28     8    54 1   
    29     9    21 1   
    30     9    36 1   
    31     9    55 1   
    32     9    56 1   
    33    10    11 1   
    34    10    22 1   
    35    10    40 1   
    36    11    34 1   
    37    11    57 1   
    38    11    58 1   
    39    12    13 ar  
    40    12    84 1   
    41    13    14 ar  
    42    13    59 1   
    43    14    15 ar  
    44    14    60 1   
    45    16    18 1   
    46    16    35 1   
    47    16    61 1   
    48    17    62 1   
    49    17    63 1   
    50    18    20 1   
    51    19    20 1   
    52    19    64 1   
    53    19    65 1   
    54    20    66 1   
    55    20    67 1   
    56    21    68 1   
    57    21    69 1   
    58    22    36 1   
    59    22    70 1   
    60    22    71 1   
    61    23    33 ar  
    62    23    36 1   
    63    23    37 ar  
    64    24    37 ar  
    65    24    38 ar  
    66    24    72 1   
    67    25    33 ar  
    68    25    38 ar  
    69    25    39 1   
    70    26    27 1   
    71    26    39 1   
    72    26    73 1   
    73    26    74 1   
    74    27    28 ar  
    75    27    32 ar  
    76    28    29 ar  
    77    28    75 1   
    78    29    30 ar  
    79    29    76 1   
    80    30    31 ar  
    81    30    77 1   
    82    31    32 ar  
    83    31    78 1   
    84    32    79 1   
    85    33    80 1   
    86    34    81 1   
    87    34    84 1   
    88    39    82 1   
    89    40    83 1   
    90    41    84 2   
@<TRIPOS>SUBSTRUCTURE
     1 UEQ         1 TEMP              0 ****  ****    0 ROOT
