@<TRIPOS>MOLECULE
UEQ
   84    90     1     0     0
SMALL
No Charge or Current Charge


@<TRIPOS>ATOM
      1 C10        -42.4450    28.1540    21.4280 c3         1 UEQ       0.221100
      2 C13        -42.5200    25.0970    20.5320 cx         1 UEQ      -0.151700
      3 C15        -42.0000    23.8140    19.9240 cx         1 UEQ      -0.126400
      4 C17        -44.0650    23.9440    22.8460 cy         1 UEQ      -0.071900
      5 C20        -44.0090    26.5650    22.8200 cy         1 UEQ       0.169800
      6 C21        -42.2130    30.1440    22.9950 ca         1 UEQ      -0.111500
      7 C22        -42.6880    31.3430    23.5540 ca         1 UEQ      -0.075500
      8 C24        -43.9140    36.5840    23.2500 c6         1 UEQ      -0.103400
      9 C26        -41.6810    37.7170    22.6860 c6         1 UEQ       0.211800
     10 C02        -43.4120    36.3410    24.7070 c6         1 UEQ       0.131000
     11 C03        -44.0570    35.0680    25.3530 c3         1 UEQ       0.073000
     12 C06        -43.9380    31.8800    23.1560 ca         1 UEQ      -0.156600
     13 C07        -44.6880    31.1780    22.1840 ca         1 UEQ      -0.075500
     14 C08        -44.2090    29.9800    21.6280 ca         1 UEQ      -0.111500
     15 C09        -42.9670    29.4550    22.0290 ca         1 UEQ      -0.058300
     16 C12        -42.1640    25.5910    21.9510 cy         1 UEQ       0.211500
     17 C14        -41.5630    25.1460    19.3640 cx         1 UEQ      -0.126400
     18 C16        -43.2600    25.2410    22.9830 cy         1 UEQ      -0.097000
     19 C18        -43.0840    23.4840    24.0280 cy         1 UEQ      -0.093400
     20 C19        -42.7180    25.0010    24.3990 cy         1 UEQ      -0.071900
     21 C25        -43.2250    37.8190    22.6010 c6         1 UEQ      -0.104400
     22 C27        -41.8480    36.2420    24.6920 c6         1 UEQ       0.225800
     23 C29        -40.6610    38.4830    24.8890 ca         1 UEQ       0.416900
     24 C31        -39.3740    39.0410    26.7030 ca         1 UEQ       0.190900
     25 C33        -40.2930    40.7590    25.5200 ca         1 UEQ       0.400900
     26 C35        -41.5040    42.8190    24.6110 c3         1 UEQ       0.283100
     27 C36        -42.9050    42.4160    25.0720 ca         1 UEQ      -0.114300
     28 C37        -43.3250    42.6740    26.3930 ca         1 UEQ      -0.098500
     29 C38        -44.6100    42.2940    26.8180 ca         1 UEQ      -0.110000
     30 C39        -45.4860    41.6530    25.9250 ca         1 UEQ      -0.107000
     31 C40        -45.0770    41.3970    24.6060 ca         1 UEQ      -0.110000
     32 C41        -43.7930    41.7800    24.1800 ca         1 UEQ      -0.098500
     33 C42        -40.8770    39.8440    24.6430 ca         1 UEQ      -0.358000
     34 N04        -43.7180    33.7940    24.6930 ns         1 UEQ      -0.503900
     35 N11        -42.6290    27.0020    22.3160 nq         1 UEQ      -0.729600
     36 N28        -41.2550    37.4810    24.0930 nh         1 UEQ      -0.758300
     37 N30        -39.9100    38.0770    25.9290 nb         1 UEQ      -0.279000
     38 N32        -39.5300    40.3700    26.5490 nb         1 UEQ      -0.294000
     39 N34        -40.4650    42.1240    25.3910 nu         1 UEQ      -0.941100
     40 O01        -43.7950    37.4710    25.5030 oh         1 UEQ      -0.643000
     41 O23        -45.5560    33.6410    23.3680 o          1 UEQ      -0.606100
     42 H1         -42.9600    27.9590    20.4780 h1         1 UEQ       0.043200
     43 H2         -41.3750    28.2630    21.2070 h1         1 UEQ       0.043200
     44 H3         -43.5500    25.3490    20.2900 hc         1 UEQ       0.080700
     45 H4         -42.6930    23.2160    19.3360 hc         1 UEQ       0.072200
     46 H5         -41.2730    23.2400    20.4930 hc         1 UEQ       0.072200
     47 H6         -45.1170    24.0260    23.1410 hc         1 UEQ       0.053700
     48 H7         -43.9930    23.3730    21.9150 hc         1 UEQ       0.053700
     49 H8         -44.3650    27.0350    23.7440 h1         1 UEQ       0.049200
     50 H9         -44.7960    26.5420    22.0570 h1         1 UEQ       0.049200
     51 H10        -41.2530    29.7440    23.3150 ha         1 UEQ       0.124500
     52 H11        -42.0680    31.8400    24.2960 ha         1 UEQ       0.121000
     53 H12        -45.0040    36.7150    23.2390 hc         1 UEQ       0.054200
     54 H13        -43.7030    35.7010    22.6310 hc         1 UEQ       0.054200
     55 H14        -41.2190    38.6230    22.2700 h1         1 UEQ       0.053200
     56 H15        -41.3400    36.8820    22.0560 h1         1 UEQ       0.053200
     57 H16        -45.1480    35.1920    25.3640 h1         1 UEQ       0.067200
     58 H17        -43.7280    35.0050    26.3990 h1         1 UEQ       0.067200
     59 H18        -45.6530    31.5600    21.8550 ha         1 UEQ       0.121000
     60 H19        -44.8060    29.4570    20.8850 ha         1 UEQ       0.124500
     61 H20        -41.1370    25.3180    22.2260 h1         1 UEQ       0.071700
     62 H21        -40.5410    25.4660    19.5560 hc         1 UEQ       0.072200
     63 H22        -41.9590    25.4480    18.3970 hc         1 UEQ       0.072200
     64 H23        -43.5610    22.9120    24.8310 hc         1 UEQ       0.049700
     65 H24        -42.2230    22.9040    23.6760 hc         1 UEQ       0.049700
     66 H25        -41.6590    25.2170    24.5750 hc         1 UEQ       0.053700
     67 H26        -43.3220    25.4260    25.2080 hc         1 UEQ       0.053700
     68 H27        -43.5610    38.7420    23.0940 hc         1 UEQ       0.054200
     69 H28        -43.5290    37.9060    21.5490 hc         1 UEQ       0.054200
     70 H29        -41.5390    35.3630    24.1060 h1         1 UEQ       0.071200
     71 H30        -41.4870    36.0720    25.7160 h1         1 UEQ       0.071200
     72 H31        -38.7610    38.7130    27.5400 h5         1 UEQ       0.037100
     73 H32        -41.3850    42.5900    23.5430 h1         1 UEQ       0.053700
     74 H33        -41.3920    43.9070    24.7230 h1         1 UEQ       0.053700
     75 H34        -42.6520    43.1660    27.0920 ha         1 UEQ       0.113000
     76 H35        -44.9260    42.4930    27.8400 ha         1 UEQ       0.113500
     77 H36        -46.4790    41.3560    26.2550 ha         1 UEQ       0.113000
     78 H37        -45.7540    40.9020    23.9130 ha         1 UEQ       0.113500
     79 H38        -43.4880    41.5770    23.1550 ha         1 UEQ       0.113000
     80 H39        -41.4930    40.1780    23.8200 ha         1 UEQ       0.130000
     81 H40        -42.8660    33.3220    24.9660 hn         1 UEQ       0.316500
     82 H42        -39.9840    42.6750    26.1030 hn         1 UEQ       0.505000
     83 H43        -43.1710    38.1790    25.2300 ho         1 UEQ       0.443000
     84 C05        -44.4870    33.1700    23.7320 c          1 UEQ       0.615700
@<TRIPOS>BOND
     1     1    15 1   
     2     1    35 1   
     3     1    42 1   
     4     1    43 1   
     5     2     3 1   
     6     2    16 1   
     7     2    17 1   
     8     2    44 1   
     9     3    17 1   
    10     3    45 1   
    11     3    46 1   
    12     4    18 1   
    13     4    19 1   
    14     4    47 1   
    15     4    48 1   
    16     5    18 1   
    17     5    35 1   
    18     5    49 1   
    19     5    50 1   
    20     6     7 ar  
    21     6    15 ar  
    22     6    51 1   
    23     7    12 ar  
    24     7    52 1   
    25     8    10 1   
    26     8    21 1   
    27     8    53 1   
    28     8    54 1   
    29     9    21 1   
    30     9    36 1   
    31     9    55 1   
    32     9    56 1   
    33    10    11 1   
    34    10    22 1   
    35    10    40 1   
    36    11    34 1   
    37    11    57 1   
    38    11    58 1   
    39    12    13 ar  
    40    12    84 1   
    41    13    14 ar  
    42    13    59 1   
    43    14    15 ar  
    44    14    60 1   
    45    16    18 1   
    46    16    35 1   
    47    16    61 1   
    48    17    62 1   
    49    17    63 1   
    50    18    20 1   
    51    19    20 1   
    52    19    64 1   
    53    19    65 1   
    54    20    66 1   
    55    20    67 1   
    56    21    68 1   
    57    21    69 1   
    58    22    36 1   
    59    22    70 1   
    60    22    71 1   
    61    23    33 ar  
    62    23    36 1   
    63    23    37 ar  
    64    24    37 ar  
    65    24    38 ar  
    66    24    72 1   
    67    25    33 ar  
    68    25    38 ar  
    69    25    39 1   
    70    26    27 1   
    71    26    39 1   
    72    26    73 1   
    73    26    74 1   
    74    27    28 ar  
    75    27    32 ar  
    76    28    29 ar  
    77    28    75 1   
    78    29    30 ar  
    79    29    76 1   
    80    30    31 ar  
    81    30    77 1   
    82    31    32 ar  
    83    31    78 1   
    84    32    79 1   
    85    33    80 1   
    86    34    81 1   
    87    34    84 1   
    88    39    82 1   
    89    40    83 1   
    90    41    84 2   
@<TRIPOS>SUBSTRUCTURE
     1 UEQ         1 TEMP              0 ****  ****    0 ROOT
