@<TRIPOS>MOLECULE
UER
   55    57     1     0     0
SMALL
abcg2


@<TRIPOS>ATOM
      1 C10         18.7980   -60.1200   -15.1250 c6         1 UER       0.095000
      2 C11         17.8780   -61.1800   -15.7210 c6         1 UER       0.152300
      3 C12         15.9480   -60.4940   -14.4700 c6         1 UER       0.152300
      4 C01         16.8930   -56.0370    -7.5080 ca         1 UER      -0.207300
      5 C02         16.2710   -55.5510    -8.6590 ca         1 UER       0.372900
      6 C03         16.8260   -57.4320    -9.8000 ca         1 UER       0.204900
      7 C04         17.4490   -58.0200    -8.7140 ca         1 UER      -0.078000
      8 C05         17.4790   -57.2940    -7.5300 ca         1 UER      -0.035000
      9 C06         18.0240   -57.4140   -12.4550 c3         1 UER      -0.276000
     10 C08         17.3660   -56.2580   -13.2140 c3         1 UER      -0.074600
     11 C09         19.1000   -56.8440   -11.5200 c3         1 UER      -0.074600
     12 C13         16.6080   -59.1210   -14.6480 c6         1 UER       0.095000
     13 C15         17.1960   -64.0070   -14.8730 ca         1 UER      -0.088300
     14 C16         17.8070   -64.3000   -13.6520 ca         1 UER      -0.087500
     15 C17         18.6960   -65.3580   -13.5310 ca         1 UER      -0.106500
     16 C18         18.9770   -66.1320   -14.6510 ca         1 UER       0.127000
     17 C19         18.3850   -65.8680   -15.8760 ca         1 UER      -0.106500
     18 C20         17.4950   -64.8020   -15.9760 ca         1 UER      -0.087500
     19 F01         15.8260   -54.4930    -6.0620 f          1 UER      -0.105333
     20 F02         17.2380   -55.8790    -5.1700 f          1 UER      -0.105333
     21 F03         17.9500   -54.2420    -6.4010 f          1 UER      -0.105333
     22 N01         16.2390   -56.2430    -9.7930 nb         1 UER      -0.602000
     23 N02         18.0260   -59.1680   -14.3090 n          1 UER      -0.396800
     24 N03         16.9090   -61.5710   -14.7090 n3         1 UER      -0.721600
     25 O01         19.9300   -58.6110   -13.2740 o          1 UER      -0.590100
     26 S01         16.7890   -58.3040   -11.3840 sy         1 UER       0.944100
     27 CL01        20.1050   -67.4680   -14.5090 cl         1 UER      -0.216000
     28 H1          19.5280   -60.5950   -14.4730 h1         1 UER       0.062950
     29 H2          18.4870   -62.0410   -15.9960 h1         1 UER       0.045950
     30 H3          15.1000   -60.5440   -15.1710 h1         1 UER       0.045950
     31 H4          15.7920   -54.5790    -8.6650 h4         1 UER       0.044100
     32 H5          17.9010   -58.9970    -8.7910 ha         1 UER       0.164000
     33 H6          17.9590   -57.6990    -6.6500 ha         1 UER       0.146000
     34 H7          16.9780   -55.5250   -12.5080 hc         1 UER       0.058533
     35 H8          18.1360   -55.7750   -13.8180 hc         1 UER       0.058533
     36 H9          16.5590   -56.5630   -13.8700 hc         1 UER       0.058533
     37 H10         18.6850   -56.0490   -10.9060 hc         1 UER       0.058533
     38 H11         19.5400   -57.6080   -10.8820 hc         1 UER       0.058533
     39 H12         19.8920   -56.4250   -12.1350 hc         1 UER       0.058533
     40 H13         16.5270   -58.7970   -15.6880 h1         1 UER       0.062950
     41 H14         15.7650   -62.8440   -15.9710 h1         1 UER       0.041200
     42 H15         15.4490   -62.9540   -14.2400 h1         1 UER       0.041200
     43 H16         17.5880   -63.6870   -12.7870 ha         1 UER       0.124000
     44 H17         19.1650   -65.5820   -12.5820 ha         1 UER       0.130500
     45 H18         18.6160   -66.4780   -16.7380 ha         1 UER       0.130500
     46 H19         17.0340   -64.5850   -16.9320 ha         1 UER       0.124000
     47 H20         19.3430   -59.5860   -15.9080 h1         1 UER       0.062950
     48 H21         17.3910   -60.8240   -16.6430 h1         1 UER       0.045950
     49 H22         15.5490   -60.5990   -13.4600 h1         1 UER       0.045950
     50 H23         16.0800   -58.4010   -14.0410 h1         1 UER       0.062950
     51 C07         18.7130   -58.4670   -13.3880 c          1 UER       0.622100
     52 C14         16.2460   -62.8420   -14.9800 c3         1 UER       0.221100
     53 C21         16.9710   -55.1690    -6.2810 c3         1 UER       0.350300
     54 O02         17.3020   -59.6400   -11.1430 o          1 UER      -0.501000
     55 O03         15.4480   -58.1540   -11.9130 o          1 UER      -0.501000
@<TRIPOS>BOND
     1     1     2 1   
     2     1    23 1   
     3     1    28 1   
     4     1    47 1   
     5     2    24 1   
     6     2    29 1   
     7     2    48 1   
     8     3    12 1   
     9     3    24 1   
    10     3    30 1   
    11     3    49 1   
    12     4     5 ar  
    13     4     8 ar  
    14     4    53 1   
    15     5    22 ar  
    16     5    31 1   
    17     6     7 ar  
    18     6    22 ar  
    19     6    26 1   
    20     7     8 ar  
    21     7    32 1   
    22     8    33 1   
    23     9    10 1   
    24     9    11 1   
    25     9    26 1   
    26     9    51 1   
    27    10    34 1   
    28    10    35 1   
    29    10    36 1   
    30    11    37 1   
    31    11    38 1   
    32    11    39 1   
    33    12    23 1   
    34    12    40 1   
    35    12    50 1   
    36    13    14 ar  
    37    13    18 ar  
    38    13    52 1   
    39    14    15 ar  
    40    14    43 1   
    41    15    16 ar  
    42    15    44 1   
    43    16    17 ar  
    44    16    27 1   
    45    17    18 ar  
    46    17    45 1   
    47    18    46 1   
    48    19    53 1   
    49    20    53 1   
    50    21    53 1   
    51    23    51 1   
    52    24    52 1   
    53    25    51 2   
    54    26    54 2   
    55    26    55 2   
    56    41    52 1   
    57    42    52 1   
@<TRIPOS>SUBSTRUCTURE
     1 UER         1 TEMP              0 ****  ****    0 ROOT
