@<TRIPOS>MOLECULE
UER
   55    57     1     0     0
SMALL
No Charge or Current Charge


@<TRIPOS>ATOM
      1 C10         18.9730   -61.0830   -13.8190 c6         1 UER       0.095000
      2 C11         18.0910   -61.7060   -14.9330 c6         1 UER       0.152300
      3 C12         16.0960   -61.3350   -13.6030 c6         1 UER       0.152300
      4 C01         16.5810   -54.2930    -8.0860 ca         1 UER      -0.207300
      5 C02         15.7360   -55.2050    -8.7440 ca         1 UER       0.372900
      6 C03         17.4820   -56.7250    -9.0800 ca         1 UER       0.204900
      7 C04         18.3920   -55.8620    -8.4340 ca         1 UER      -0.078000
      8 C05         17.9420   -54.6300    -7.9330 ca         1 UER      -0.035000
      9 C06         18.5050   -57.9750   -11.4960 c3         1 UER      -0.276000
     10 C08         17.2940   -57.3880   -12.2970 c3         1 UER      -0.074600
     11 C09         19.6510   -56.9060   -11.5380 c3         1 UER      -0.074600
     12 C13         16.9400   -60.6990   -12.4650 c6         1 UER       0.095000
     13 C15         16.7610   -64.1570   -16.1100 ca         1 UER      -0.088300
     14 C16         17.1190   -65.3110   -15.3850 ca         1 UER      -0.087500
     15 C17         17.7890   -66.3700   -16.0220 ca         1 UER      -0.106500
     16 C18         18.1040   -66.2800   -17.3870 ca         1 UER       0.127000
     17 C19         17.7520   -65.1330   -18.1170 ca         1 UER      -0.106500
     18 C20         17.0810   -64.0730   -17.4810 ca         1 UER      -0.087500
     19 F01         14.7860   -53.1220    -7.0350 f          1 UER      -0.105333
     20 F02         16.7920   -52.4000    -6.6320 f          1 UER      -0.105333
     21 F03         15.8940   -52.0730    -8.5840 f          1 UER      -0.105333
     22 N01         16.1650   -56.3920    -9.2290 nb         1 UER      -0.602000
     23 N02         18.2540   -60.1330   -12.9120 n          1 UER      -0.396800
     24 N03         16.8650   -62.3400   -14.3800 n3         1 UER      -0.721600
     25 O01         20.2210   -59.6230   -11.8890 o          1 UER      -0.590100
     26 S01         18.0810   -58.3370    -9.7450 sy         1 UER       0.944100
     27 Cl01        18.9440   -67.6040   -18.1840 cl         1 UER      -0.216000
     28 H1          19.3960   -61.8970   -13.2130 h1         1 UER       0.062950
     29 H2          18.6980   -62.4420   -15.4800 h1         1 UER       0.045950
     30 H3          15.7430   -60.5310   -14.2670 h1         1 UER       0.045950
     31 H4          14.6800   -54.9820    -8.8940 h4         1 UER       0.044100
     32 H5          19.4380   -56.1400    -8.3250 ha         1 UER       0.164000
     33 H6          18.6410   -53.9560    -7.4400 ha         1 UER       0.146000
     34 H7          17.1200   -56.3380   -12.0300 hc         1 UER       0.058533
     35 H8          17.4890   -57.4200   -13.3760 hc         1 UER       0.058533
     36 H9          16.3520   -57.9070   -12.1020 hc         1 UER       0.058533
     37 H10         19.3120   -55.9330   -11.1620 hc         1 UER       0.058533
     38 H11         20.5220   -57.2050   -10.9420 hc         1 UER       0.058533
     39 H12         19.9950   -56.7540   -12.5700 hc         1 UER       0.058533
     40 H13         16.3160   -59.9420   -11.9880 h1         1 UER       0.062950
     41 H14         15.7070   -62.2780   -16.1620 h1         1 UER       0.041200
     42 H15         15.1300   -63.4190   -14.9480 h1         1 UER       0.041200
     43 H16         16.8800   -65.3820   -14.3260 ha         1 UER       0.124000
     44 H17         18.0640   -67.2580   -15.4590 ha         1 UER       0.130500
     45 H18         17.9990   -65.0660   -19.1740 ha         1 UER       0.130500
     46 H19         16.8140   -63.1870   -18.0520 ha         1 UER       0.124000
     47 H20         19.8160   -60.5630   -14.2970 h1         1 UER       0.062950
     48 H21         17.8200   -60.9170   -15.6500 h1         1 UER       0.045950
     49 H22         15.2030   -61.7980   -13.1580 h1         1 UER       0.045950
     50 H23         17.1370   -61.4710   -11.7070 h1         1 UER       0.062950
     51 C07         19.0420   -59.3270   -12.0480 c          1 UER       0.622100
     52 C14         16.0380   -63.0090   -15.4120 c3         1 UER       0.221100
     53 C21         16.0140   -52.9700    -7.5800 c3         1 UER       0.350300
     54 O02         19.3350   -58.6840    -9.0590 o          1 UER      -0.501000
     55 O03         16.9600   -59.2890    -9.7540 o          1 UER      -0.501000
@<TRIPOS>BOND
     1     1     2 1   
     2     1    23 1   
     3     1    28 1   
     4     1    47 1   
     5     2    24 1   
     6     2    29 1   
     7     2    48 1   
     8     3    12 1   
     9     3    24 1   
    10     3    30 1   
    11     3    49 1   
    12     4     5 ar  
    13     4     8 ar  
    14     4    53 1   
    15     5    22 ar  
    16     5    31 1   
    17     6     7 ar  
    18     6    22 ar  
    19     6    26 1   
    20     7     8 ar  
    21     7    32 1   
    22     8    33 1   
    23     9    10 1   
    24     9    11 1   
    25     9    26 1   
    26     9    51 1   
    27    10    34 1   
    28    10    35 1   
    29    10    36 1   
    30    11    37 1   
    31    11    38 1   
    32    11    39 1   
    33    12    23 1   
    34    12    40 1   
    35    12    50 1   
    36    13    14 ar  
    37    13    18 ar  
    38    13    52 1   
    39    14    15 ar  
    40    14    43 1   
    41    15    16 ar  
    42    15    44 1   
    43    16    17 ar  
    44    16    27 1   
    45    17    18 ar  
    46    17    45 1   
    47    18    46 1   
    48    19    53 1   
    49    20    53 1   
    50    21    53 1   
    51    23    51 1   
    52    24    52 1   
    53    25    51 2   
    54    26    54 2   
    55    26    55 2   
    56    41    52 1   
    57    42    52 1   
@<TRIPOS>SUBSTRUCTURE
     1 UER         1 TEMP              0 ****  ****    0 ROOT
