@<TRIPOS>MOLECULE
UES
   56    60     1     0     0
SMALL
No Charge or Current Charge


@<TRIPOS>ATOM
      1 C1          -7.1310    29.9820   -10.7320 c3         1 UES       0.075900
      2 C3          -7.8790    32.1060    -9.5310 cc         1 UES      -0.134000
      3 N6          -8.0830    31.9710   -11.8370 nc         1 UES      -0.523800
      4 C7          -8.8130    34.4480    -9.1850 ca         1 UES       0.067000
      5 C8          -9.3590    35.5950    -9.7990 ca         1 UES      -0.129000
      6 C9          -9.7350    36.7080    -9.0310 ca         1 UES      -0.051000
      7 C10         -9.5670    36.6820    -7.6370 ca         1 UES      -0.200000
      8 C11         -9.9290    37.7800    -6.8350 ca         1 UES       0.175900
      9 C13         -9.2550    36.6290    -4.9770 ca         1 UES       0.383900
     10 C15         -8.7000    35.7090    -2.6380 ca         1 UES       0.315000
     11 C16         -8.1130    36.1600    -1.4450 ca         1 UES      -0.152500
     12 C19         -8.5430    33.4150    -1.8110 ca         1 UES      -0.078000
     13 C20         -8.9240    34.3290    -2.8090 ca         1 UES      -0.152500
     14 C21         -7.5260    32.8590     0.4620 c6         1 UES      -0.011400
     15 C22         -5.9990    32.8800     0.7330 c6         1 UES      -0.069400
     16 C27         -8.2870    33.0850     1.7940 c6         1 UES      -0.069400
     17 C30         -8.6510    34.4400    -7.7830 ca         1 UES      -0.125000
     18 N2          -7.6900    31.3400   -10.6770 na         1 UES       0.121800
     19 C4          -8.4180    33.2780    -9.9940 cd         1 UES      -0.175000
     20 C5          -8.5180    33.1370   -11.3990 cd         1 UES       0.264900
     21 N12         -9.7690    37.7560    -5.4980 nb         1 UES      -0.230000
     22 N14         -9.0760    36.6550    -3.5980 nu         1 UES      -0.928900
     23 C17         -7.7300    35.2490    -0.4450 ca         1 UES      -0.078000
     24 C18         -7.9390    33.8670    -0.6220 ca         1 UES      -0.105300
     25 C23         -5.6150    31.8670     1.8390 c6         1 UES       0.163800
     26 N24         -6.3700    32.1170     3.0980 n3         1 UES      -0.718600
     27 C25         -5.9410    31.2260     4.1970 c3         1 UES       0.152100
     28 C26         -7.8410    32.0670     2.8720 c6         1 UES       0.163800
     29 N28         -8.8670    35.5340    -5.6600 nb         1 UES      -0.242000
     30 C29         -9.0230    35.5470    -7.0000 ca         1 UES       0.085000
     31 H1          -7.8720    29.2980   -11.1630 h1         1 UES       0.058700
     32 H2          -6.2290    29.9810   -11.3560 h1         1 UES       0.058700
     33 H3          -6.8730    29.6450    -9.7210 h1         1 UES       0.058700
     34 H4          -7.6220    31.7590    -8.5390 h4         1 UES       0.157000
     35 H5          -9.4970    35.6330   -10.8760 ha         1 UES       0.117000
     36 H6         -10.1540    37.5860    -9.5200 ha         1 UES       0.115000
     37 H7         -10.3500    38.6880    -7.2640 h4         1 UES       0.023100
     38 H8          -7.9430    37.2220    -1.2910 ha         1 UES       0.130000
     39 H9          -8.7250    32.3530    -1.9650 ha         1 UES       0.112000
     40 H10         -9.4100    33.9560    -3.7030 ha         1 UES       0.130000
     41 H11         -7.7800    31.8490     0.1090 hc         1 UES       0.044700
     42 H12         -5.4520    32.6430    -0.1890 hc         1 UES       0.050200
     43 H13         -5.6790    33.8850     1.0390 hc         1 UES       0.050200
     44 H14         -8.1120    34.1030     2.1670 hc         1 UES       0.050200
     45 H15         -9.3690    32.9950     1.6270 hc         1 UES       0.050200
     46 H16         -8.2330    33.5690    -7.2870 ha         1 UES       0.126000
     47 H17         -8.8970    33.8520   -12.1190 h4         1 UES       0.039100
     48 H18         -9.1770    37.5970    -3.2200 hn         1 UES       0.510000
     49 H19         -7.2700    35.6230     0.4670 ha         1 UES       0.112000
     50 H20         -5.8110    30.8470     1.4750 h1         1 UES       0.029700
     51 H21         -4.5330    31.9410     2.0240 h1         1 UES       0.029700
     52 H23         -6.4690    31.4740     5.1270 h1         1 UES       0.030033
     53 H24         -6.1480    30.1750     3.9540 h1         1 UES       0.030033
     54 H25         -4.8630    31.3300     4.3820 h1         1 UES       0.030033
     55 H26         -8.3770    32.2870     3.8070 h1         1 UES       0.029700
     56 H27         -8.1430    31.0560     2.5570 h1         1 UES       0.029700
@<TRIPOS>BOND
     1     1    18 1   
     2     1    31 1   
     3     1    32 1   
     4     1    33 1   
     5     2    18 1   
     6     2    19 2   
     7     2    34 1   
     8     3    18 1   
     9     3    20 2   
    10     4     5 ar  
    11     4    17 ar  
    12     4    19 1   
    13     5     6 ar  
    14     5    35 1   
    15     6     7 ar  
    16     6    36 1   
    17     7     8 ar  
    18     7    30 ar  
    19     8    21 ar  
    20     8    37 1   
    21     9    21 ar  
    22     9    22 1   
    23     9    29 ar  
    24    10    11 ar  
    25    10    13 ar  
    26    10    22 1   
    27    11    23 ar  
    28    11    38 1   
    29    12    13 ar  
    30    12    24 ar  
    31    12    39 1   
    32    13    40 1   
    33    14    15 1   
    34    14    16 1   
    35    14    24 1   
    36    14    41 1   
    37    15    25 1   
    38    15    42 1   
    39    15    43 1   
    40    16    28 1   
    41    16    44 1   
    42    16    45 1   
    43    17    30 ar  
    44    17    46 1   
    45    19    20 1   
    46    20    47 1   
    47    22    48 1   
    48    23    24 ar  
    49    23    49 1   
    50    25    26 1   
    51    25    50 1   
    52    25    51 1   
    53    26    27 1   
    54    26    28 1   
    55    27    52 1   
    56    27    53 1   
    57    27    54 1   
    58    28    55 1   
    59    28    56 1   
    60    29    30 ar  
@<TRIPOS>SUBSTRUCTURE
     1 UES         1 TEMP              0 ****  ****    0 ROOT
