@<TRIPOS>MOLECULE
UES
   56    60     1     0     0
SMALL
abcg2


@<TRIPOS>ATOM
      1 C1          -7.6570    29.8610   -10.7590 c3         1 UES       0.075900
      2 C3          -8.1730    32.0190    -9.5890 cc         1 UES      -0.134000
      3 N6          -8.3640    31.9300   -11.8160 nc         1 UES      -0.523800
      4 C7          -8.8590    34.4550    -9.1780 ca         1 UES       0.067000
      5 C8          -9.2970    35.6630    -9.7890 ca         1 UES      -0.129000
      6 C9          -9.5610    36.7770    -9.0370 ca         1 UES      -0.051000
      7 C10         -9.3990    36.7430    -7.6370 ca         1 UES      -0.200000
      8 C11         -9.6460    37.8390    -6.7810 ca         1 UES       0.175900
      9 C13         -9.0530    36.5830    -4.9690 ca         1 UES       0.383900
     10 C15         -8.4950    35.6660    -2.6850 ca         1 UES       0.315000
     11 C16         -8.4180    36.0740    -1.3440 ca         1 UES      -0.152500
     12 C19         -7.7600    33.4760    -1.9880 ca         1 UES      -0.078000
     13 C20         -8.1590    34.3460    -2.9990 ca         1 UES      -0.152500
     14 C21         -7.2490    32.8970     0.4180 c6         1 UES      -0.011400
     15 C22         -5.9600    33.3310     1.1290 c6         1 UES      -0.069400
     16 C27         -8.3430    32.6540     1.4690 c6         1 UES      -0.069400
     17 C30         -8.6990    34.4180    -7.8010 ca         1 UES      -0.125000
     18 N2          -8.0530    31.2550   -10.6890 na         1 UES       0.121800
     19 C4          -8.5890    33.2810   -10.0020 cd         1 UES      -0.175000
     20 C5          -8.6880    33.1530   -11.4090 cd         1 UES       0.264900
     21 N12         -9.4850    37.7830    -5.4850 nb         1 UES      -0.230000
     22 N14         -8.9130    36.6270    -3.6110 nu         1 UES      -0.928900
     23 C17         -8.0200    35.1910    -0.3550 ca         1 UES      -0.078000
     24 C18         -7.6800    33.8670    -0.6550 ca         1 UES      -0.105300
     25 C23         -5.5720    32.3380     2.2180 c6         1 UES       0.163800
     26 N24         -6.6480    32.1650     3.1920 n3         1 UES      -0.718600
     27 C25         -6.2410    31.2780     4.2700 c3         1 UES       0.152100
     28 C26         -7.8670    31.6860     2.5440 c6         1 UES       0.163800
     29 N28         -8.7910    35.4920    -5.6570 nb         1 UES      -0.242000
     30 C29         -8.9600    35.5500    -7.0080 ca         1 UES       0.085000
     31 H1          -8.4650    29.2670   -11.1850 h1         1 UES       0.058700
     32 H2          -6.7670    29.7610   -11.3790 h1         1 UES       0.058700
     33 H3          -7.4410    29.5120    -9.7520 h1         1 UES       0.058700
     34 H4          -7.9580    31.6220    -8.6110 h4         1 UES       0.157000
     35 H5          -9.4250    35.7030   -10.8620 ha         1 UES       0.117000
     36 H6          -9.8970    37.6940    -9.5070 ha         1 UES       0.115000
     37 H7          -9.9870    38.7820    -7.2010 h4         1 UES       0.023100
     38 H8          -8.6750    37.0940    -1.0850 ha         1 UES       0.130000
     39 H9          -7.5050    32.4560    -2.2540 ha         1 UES       0.112000
     40 H10         -8.2130    34.0110    -4.0200 ha         1 UES       0.130000
     41 H11         -7.0470    31.9380    -0.0710 hc         1 UES       0.044700
     42 H12         -5.1450    33.4170     0.4070 hc         1 UES       0.050200
     43 H13         -6.1050    34.3170     1.5790 hc         1 UES       0.050200
     44 H14         -8.6170    33.6040     1.9370 hc         1 UES       0.050200
     45 H15         -9.2400    32.2550     0.9890 hc         1 UES       0.050200
     46 H16         -8.3680    33.5170    -7.3010 ha         1 UES       0.126000
     47 H17         -8.9780    33.8970   -12.1340 h4         1 UES       0.039100
     48 H18         -9.1420    37.5310    -3.2250 hn         1 UES       0.510000
     49 H19         -7.9730    35.5430     0.6680 ha         1 UES       0.112000
     50 H20         -5.3120    31.3680     1.7520 h1         1 UES       0.029700
     51 H21         -4.6820    32.6870     2.7470 h1         1 UES       0.029700
     52 H23         -7.0450    31.1950     5.0040 h1         1 UES       0.030033
     53 H24         -6.0000    30.2620     3.9110 h1         1 UES       0.030033
     54 H25         -5.3560    31.6800     4.7660 h1         1 UES       0.030033
     55 H26         -8.6370    31.5650     3.3100 h1         1 UES       0.029700
     56 H27         -7.6990    30.6900     2.0920 h1         1 UES       0.029700
@<TRIPOS>BOND
     1     1    18 1   
     2     1    31 1   
     3     1    32 1   
     4     1    33 1   
     5     2    18 1   
     6     2    19 2   
     7     2    34 1   
     8     3    18 1   
     9     3    20 2   
    10     4     5 ar  
    11     4    17 ar  
    12     4    19 1   
    13     5     6 ar  
    14     5    35 1   
    15     6     7 ar  
    16     6    36 1   
    17     7     8 ar  
    18     7    30 ar  
    19     8    21 ar  
    20     8    37 1   
    21     9    21 ar  
    22     9    22 1   
    23     9    29 ar  
    24    10    11 ar  
    25    10    13 ar  
    26    10    22 1   
    27    11    23 ar  
    28    11    38 1   
    29    12    13 ar  
    30    12    24 ar  
    31    12    39 1   
    32    13    40 1   
    33    14    15 1   
    34    14    16 1   
    35    14    24 1   
    36    14    41 1   
    37    15    25 1   
    38    15    42 1   
    39    15    43 1   
    40    16    28 1   
    41    16    44 1   
    42    16    45 1   
    43    17    30 ar  
    44    17    46 1   
    45    19    20 1   
    46    20    47 1   
    47    22    48 1   
    48    23    24 ar  
    49    23    49 1   
    50    25    26 1   
    51    25    50 1   
    52    25    51 1   
    53    26    27 1   
    54    26    28 1   
    55    27    52 1   
    56    27    53 1   
    57    27    54 1   
    58    28    55 1   
    59    28    56 1   
    60    29    30 ar  
@<TRIPOS>SUBSTRUCTURE
     1 UES         1 TEMP              0 ****  ****    0 ROOT
