@<TRIPOS>MOLECULE
UET
   65    67     1     0     0
SMALL
abcg2


@<TRIPOS>ATOM
      1 O3          -1.8930     1.3490     0.0570 o          1 UET      -0.535000
      2 S           -2.9160     0.8760     0.9790 s6         1 UET       1.221100
      3 O2          -3.2340     1.6610     2.1620 o          1 UET      -0.535000
      4 C17         -4.4340     0.6570     0.0400 c3         1 UET      -0.263100
      5 C18         -4.9100     1.9750    -0.4810 ca         1 UET      -0.078300
      6 C23         -4.4850     2.4300    -1.7260 ca         1 UET      -0.085500
      7 C22         -4.9130     3.6590    -2.2080 ca         1 UET      -0.110000
      8 C21         -5.7640     4.4470    -1.4440 ca         1 UET      -0.100000
      9 C20         -6.1890     4.0000    -0.2000 ca         1 UET      -0.110000
     10 C19         -5.7600     2.7720     0.2820 ca         1 UET      -0.085500
     11 N4          -2.5020    -0.6230     1.4760 n7         1 UET      -0.942300
     12 C9          -1.5230    -1.4610     0.8280 c3         1 UET       0.181500
     13 C10         -2.1090    -2.8360     0.4650 c3         1 UET      -0.041100
     14 C11         -3.2850    -2.6980    -0.4590 ca         1 UET      -0.090300
     15 C16         -3.0910    -2.3510    -1.7960 ca         1 UET      -0.111000
     16 C15         -4.1720    -2.1600    -2.6440 ca         1 UET      -0.109000
     17 C14         -5.4680    -2.3190    -2.1670 ca         1 UET      -0.106000
     18 C13         -5.6710    -2.6740    -0.8410 ca         1 UET      -0.109000
     19 C12         -4.5860    -2.8590     0.0060 ca         1 UET      -0.111000
     20 C8          -0.3130    -1.6500     1.7410 c          1 UET       0.587100
     21 O1          -0.4340    -1.7210     2.9540 o          1 UET      -0.603100
     22 N3           0.8540    -1.7800     1.1050 ns         1 UET      -0.491900
     23 C7           2.0880    -2.0330     1.7950 c3         1 UET       0.018000
     24 C6           3.2250    -2.0980     0.7890 c          1 UET       0.586100
     25 O            3.0440    -1.9370    -0.4080 o          1 UET      -0.593100
     26 N2           4.4270    -2.3450     1.3240 ns         1 UET      -0.503900
     27 C5           5.6230    -2.4230     0.5220 c3         1 UET       0.152300
     28 C4           6.1270    -1.0890     0.0260 ca         1 UET      -0.086300
     29 C3           6.8860    -1.0300    -1.1390 ca         1 UET      -0.109000
     30 C2           7.4060     0.1710    -1.5900 ca         1 UET      -0.074000
     31 C24          5.8970     0.0880     0.7270 ca         1 UET      -0.109000
     32 C25          6.4190     1.2930     0.2790 ca         1 UET      -0.074000
     33 C1           7.1860     1.3500    -0.8820 ca         1 UET      -0.140900
     34 C            7.7480     2.6300    -1.3930 ce         1 UET       0.658800
     35 N1           7.9230     3.6070    -0.4540 nv         1 UET      -1.074200
     36 N            7.9770     2.7420    -2.6460 n2         1 UET      -0.825100
     37 H171        -4.2050    -0.0500    -0.7590 h1         1 UET       0.101700
     38 H172        -5.1500     0.1880     0.7160 h1         1 UET       0.101700
     39 H4          -2.8360    -0.8930     2.3920 hn         1 UET       0.519000
     40 H23         -3.8240     1.8170    -2.3260 ha         1 UET       0.119000
     41 H19         -6.0970     2.4260     1.2510 ha         1 UET       0.119000
     42 H22         -4.5820     4.0000    -3.1800 ha         1 UET       0.115000
     43 H21         -6.1010     5.4050    -1.8200 ha         1 UET       0.113000
     44 H20         -6.8560     4.6090     0.3970 ha         1 UET       0.115000
     45 H9          -1.2110    -0.9650    -0.0920 h1         1 UET       0.088700
     46 H101        -1.3230    -3.4320    -0.0050 hc         1 UET       0.064200
     47 H102        -2.4030    -3.3580     1.3780 hc         1 UET       0.064200
     48 H16         -2.0840    -2.2250    -2.1780 ha         1 UET       0.115000
     49 H12         -4.7550    -3.1260     1.0420 ha         1 UET       0.115000
     50 H15         -4.0030    -1.8890    -3.6780 ha         1 UET       0.117000
     51 H14         -6.3130    -2.1700    -2.8270 ha         1 UET       0.118000
     52 H13         -6.6770    -2.8010    -0.4610 ha         1 UET       0.117000
     53 H3           0.9050    -1.6820     0.1010 hn         1 UET       0.348500
     54 H71C         2.2980    -1.2450     2.5240 h1         1 UET       0.068200
     55 H72C         2.0460    -2.9740     2.3510 h1         1 UET       0.068200
     56 H2           4.5130    -2.4520     2.3220 hn         1 UET       0.320500
     57 H51C         6.3900    -2.8920     1.1390 h1         1 UET       0.061200
     58 H52C         5.4570    -3.0920    -0.3250 h1         1 UET       0.061200
     59 HA           7.0730    -1.9360    -1.7050 ha         1 UET       0.112500
     60 H24          5.2970     0.0790     1.6280 ha         1 UET       0.112500
     61 HB           7.9920     0.1980    -2.4990 ha         1 UET       0.128500
     62 H25          6.2030     2.1930     0.8410 ha         1 UET       0.128500
     63 H11N         8.1010     3.3280     0.4970 hn         1 UET       0.460000
     64 H12N         8.4380     4.4270    -0.7340 hn         1 UET       0.460000
     65 H            8.3850     3.6470    -2.8650 hn         1 UET       0.371400
@<TRIPOS>BOND
     1     1     2 2   
     2     2     3 2   
     3     2     4 1   
     4     2    11 1   
     5     4     5 1   
     6     4    37 1   
     7     4    38 1   
     8     5     6 ar  
     9     5    10 ar  
    10     6     7 ar  
    11     6    40 1   
    12     7     8 ar  
    13     7    42 1   
    14     8     9 ar  
    15     8    43 1   
    16     9    10 ar  
    17     9    44 1   
    18    10    41 1   
    19    11    12 1   
    20    11    39 1   
    21    12    13 1   
    22    12    20 1   
    23    12    45 1   
    24    13    14 1   
    25    13    46 1   
    26    13    47 1   
    27    14    15 ar  
    28    14    19 ar  
    29    15    16 ar  
    30    15    48 1   
    31    16    17 ar  
    32    16    50 1   
    33    17    18 ar  
    34    17    51 1   
    35    18    19 ar  
    36    18    52 1   
    37    19    49 1   
    38    20    21 2   
    39    20    22 1   
    40    22    23 1   
    41    22    53 1   
    42    23    24 1   
    43    23    54 1   
    44    23    55 1   
    45    24    25 2   
    46    24    26 1   
    47    26    27 1   
    48    26    56 1   
    49    27    28 1   
    50    27    57 1   
    51    27    58 1   
    52    28    29 ar  
    53    28    31 ar  
    54    29    30 ar  
    55    29    59 1   
    56    30    33 ar  
    57    30    61 1   
    58    31    32 ar  
    59    31    60 1   
    60    32    33 ar  
    61    32    62 1   
    62    33    34 1   
    63    34    35 1   
    64    34    36 2   
    65    35    63 1   
    66    35    64 1   
    67    36    65 1   
@<TRIPOS>SUBSTRUCTURE
     1 UET         1 TEMP              0 ****  ****    0 ROOT
