@<TRIPOS>MOLECULE
UET
   65    67     1     0     0
SMALL
No Charge or Current Charge


@<TRIPOS>ATOM
      1 O3          -1.3590     0.7430     1.5950 o          1 UET      -0.535000
      2 S           -2.7800     0.5610     1.2990 s6         1 UET       1.221100
      3 O2          -3.8000     1.3140     2.0290 o          1 UET      -0.535000
      4 C17         -3.0870     0.7180    -0.4680 c3         1 UET      -0.263100
      5 C18         -2.9300     2.1350    -1.0080 ca         1 UET      -0.078300
      6 C23         -1.6690     2.5950    -1.4340 ca         1 UET      -0.085500
      7 C22         -1.5240     3.9010    -1.9330 ca         1 UET      -0.110000
      8 C21         -2.6380     4.7530    -2.0100 ca         1 UET      -0.100000
      9 C20         -3.8990     4.2980    -1.5870 ca         1 UET      -0.110000
     10 C19         -4.0440     2.9920    -1.0880 ca         1 UET      -0.085500
     11 N4          -3.1280    -1.0400     1.5860 n7         1 UET      -0.942300
     12 C9          -2.2430    -2.1180     1.0340 c3         1 UET       0.181500
     13 C10         -2.9800    -3.4760     1.1380 c3         1 UET      -0.041100
     14 C11         -4.2020    -3.5600     0.2260 ca         1 UET      -0.090300
     15 C16         -4.0450    -3.8640    -1.1410 ca         1 UET      -0.111000
     16 C15         -5.1670    -3.9390    -1.9840 ca         1 UET      -0.109000
     17 C14         -6.4530    -3.7110    -1.4670 ca         1 UET      -0.106000
     18 C13         -6.6160    -3.4080    -0.1050 ca         1 UET      -0.109000
     19 C12         -5.4940    -3.3330     0.7390 ca         1 UET      -0.111000
     20 C8          -0.8380    -2.2060     1.7350 c          1 UET       0.587100
     21 O1          -0.7120    -2.3180     2.9490 o          1 UET      -0.603100
     22 N3           0.2610    -2.1260     0.9030 ns         1 UET      -0.491900
     23 C7           1.6660    -2.1520     1.3680 c3         1 UET       0.018000
     24 C6           2.6650    -1.9930     0.1990 c          1 UET       0.586100
     25 O            2.3120    -1.8750    -0.9680 o          1 UET      -0.593100
     26 N2           3.9920    -1.9980     0.5680 ns         1 UET      -0.503900
     27 C5           5.1140    -1.8330    -0.3570 c3         1 UET       0.152300
     28 C4           5.5600    -0.3800    -0.4360 ca         1 UET      -0.086300
     29 C3           4.9730     0.4950    -1.3670 ca         1 UET      -0.109000
     30 C2           5.3810     1.8380    -1.4380 ca         1 UET      -0.074000
     31 C24          6.5530     0.1090     0.4320 ca         1 UET      -0.109000
     32 C25          6.9630     1.4520     0.3630 ca         1 UET      -0.074000
     33 C1           6.3960     2.3340    -0.5880 ca         1 UET      -0.140900
     34 C            6.8000     3.7790    -0.6520 ce         1 UET       0.658800
     35 N1           8.0200     4.1220    -0.1840 nv         1 UET      -1.074200
     36 N            6.0980     4.6750    -1.2130 n2         1 UET      -0.825100
     37 H171        -2.3860     0.0420    -0.9670 h1         1 UET       0.101700
     38 H172        -4.1060     0.3520    -0.6250 h1         1 UET       0.101700
     39 H4          -3.0660    -1.0530     2.6040 hn         1 UET       0.519000
     40 H23         -0.8000     1.9420    -1.3780 ha         1 UET       0.119000
     41 H19         -5.0230     2.6470    -0.7620 ha         1 UET       0.119000
     42 H22         -0.5470     4.2520    -2.2600 ha         1 UET       0.115000
     43 H21         -2.5260     5.7640    -2.3960 ha         1 UET       0.113000
     44 H20         -4.7630     4.9560    -1.6460 ha         1 UET       0.115000
     45 H9          -2.0550    -1.9480    -0.0340 h1         1 UET       0.088700
     46 H101        -2.2790    -4.2780     0.8750 hc         1 UET       0.064200
     47 H102        -3.2630    -3.6590     2.1820 hc         1 UET       0.064200
     48 H16         -3.0530    -4.0430    -1.5510 ha         1 UET       0.115000
     49 H12         -5.6280    -3.0900     1.7910 ha         1 UET       0.115000
     50 H15         -5.0390    -4.1740    -3.0390 ha         1 UET       0.117000
     51 H14         -7.3210    -3.7690    -2.1200 ha         1 UET       0.118000
     52 H13         -7.6110    -3.2280     0.2970 ha         1 UET       0.117000
     53 H3           0.0920    -2.0200    -0.0930 hn         1 UET       0.348500
     54 H71C         1.8340    -1.3330     2.0790 h1         1 UET       0.068200
     55 H72C         1.8700    -3.1050     1.8720 h1         1 UET       0.068200
     56 H2           4.1950    -2.0970     1.5560 hn         1 UET       0.320500
     57 H51C         5.9490    -2.4560    -0.0100 h1         1 UET       0.061200
     58 H52C         4.8310    -2.1920    -1.3560 h1         1 UET       0.061200
     59 HA           4.1950     0.1340    -2.0360 ha         1 UET       0.112500
     60 H24          7.0050    -0.5520     1.1690 ha         1 UET       0.112500
     61 HB           4.9070     2.4930    -2.1660 ha         1 UET       0.128500
     62 H25          7.7180     1.8010     1.0650 ha         1 UET       0.128500
     63 H11N         8.6540     3.3450    -0.0380 hn         1 UET       0.460000
     64 H12N         8.4410     4.9470    -0.5940 hn         1 UET       0.460000
     65 H            6.4830     5.5890    -0.9500 hn         1 UET       0.371400
@<TRIPOS>BOND
     1     1     2 2   
     2     2     3 2   
     3     2     4 1   
     4     2    11 1   
     5     4     5 1   
     6     4    37 1   
     7     4    38 1   
     8     5     6 ar  
     9     5    10 ar  
    10     6     7 ar  
    11     6    40 1   
    12     7     8 ar  
    13     7    42 1   
    14     8     9 ar  
    15     8    43 1   
    16     9    10 ar  
    17     9    44 1   
    18    10    41 1   
    19    11    12 1   
    20    11    39 1   
    21    12    13 1   
    22    12    20 1   
    23    12    45 1   
    24    13    14 1   
    25    13    46 1   
    26    13    47 1   
    27    14    15 ar  
    28    14    19 ar  
    29    15    16 ar  
    30    15    48 1   
    31    16    17 ar  
    32    16    50 1   
    33    17    18 ar  
    34    17    51 1   
    35    18    19 ar  
    36    18    52 1   
    37    19    49 1   
    38    20    21 2   
    39    20    22 1   
    40    22    23 1   
    41    22    53 1   
    42    23    24 1   
    43    23    54 1   
    44    23    55 1   
    45    24    25 2   
    46    24    26 1   
    47    26    27 1   
    48    26    56 1   
    49    27    28 1   
    50    27    57 1   
    51    27    58 1   
    52    28    29 ar  
    53    28    31 ar  
    54    29    30 ar  
    55    29    59 1   
    56    30    33 ar  
    57    30    61 1   
    58    31    32 ar  
    59    31    60 1   
    60    32    33 ar  
    61    32    62 1   
    62    33    34 1   
    63    34    35 1   
    64    34    36 2   
    65    35    63 1   
    66    35    64 1   
    67    36    65 1   
@<TRIPOS>SUBSTRUCTURE
     1 UET         1 TEMP              0 ****  ****    0 ROOT
