@<TRIPOS>MOLECULE
UEU
   62    65     1     0     0
SMALL
No Charge or Current Charge


@<TRIPOS>ATOM
      1 O29        -65.8150    38.5760    31.0250 o          1 UEU      -0.596100
      2 C28        -65.5180    37.8380    31.9580 c          1 UEU       0.617700
      3 N30        -64.6990    36.7100    31.7430 n          1 UEU      -0.398800
      4 C34        -64.2180    36.3570    30.3910 c5         1 UEU       0.108000
      5 C33        -63.3800    35.0880    30.6890 c5         1 UEU      -0.091400
      6 C32        -62.6460    35.4960    31.9910 c5         1 UEU       0.140500
      7 N35        -61.5110    36.4080    31.7350 n8         1 UEU      -0.996200
      8 C31        -63.8180    36.1470    32.8010 c5         1 UEU       0.109000
      9 C16        -66.0970    38.0720    33.3370 ca         1 UEU      -0.135600
     10 C15        -66.4710    36.9950    34.1750 ca         1 UEU      -0.076000
     11 C14        -67.0260    37.2360    35.4510 cp         1 UEU      -0.042000
     12 C19        -67.5060    36.0580    36.2410 cp         1 UEU       0.022000
     13 C24        -68.7630    36.0750    36.8930 ca         1 UEU      -0.144000
     14 C23        -69.2060    34.9750    37.6420 ca         1 UEU       0.211000
     15 F25        -70.4130    35.0390    38.2510 f          1 UEU      -0.161000
     16 C22        -68.4060    33.8220    37.7540 ca         1 UEU      -0.063000
     17 C26        -68.8530    32.6930    38.5200 cg         1 UEU       0.328000
     18 N27        -69.2050    31.7680    39.1390 n1         1 UEU      -0.440000
     19 C21        -67.1580    33.7820    37.1050 ca         1 UEU      -0.047000
     20 C20        -66.7170    34.8880    36.3560 ca         1 UEU      -0.121000
     21 C17        -66.3330    39.4000    33.7650 ca         1 UEU      -0.056000
     22 C18        -66.8720    39.6830    35.0340 ca         1 UEU      -0.105000
     23 C13        -67.1960    38.6270    35.9000 cq         1 UEU       0.002000
     24 C2         -67.6770    38.9940    37.2770 cq         1 UEU      -0.094000
     25 C3         -67.0840    38.4500    38.4380 ca         1 UEU       0.189000
     26 F12        -66.0260    37.6120    38.3450 f          1 UEU      -0.176000
     27 C4         -67.5600    38.7910    39.7140 ca         1 UEU      -0.139000
     28 C5         -68.6300    39.6910    39.8590 ca         1 UEU      -0.031300
     29 C6         -69.2190    40.2410    38.7060 ca         1 UEU      -0.126000
     30 C1         -68.7450    39.9020    37.4270 ca         1 UEU      -0.075000
     31 C7         -69.1560    40.0590    41.2470 c3         1 UEU      -0.066100
     32 C8         -68.3850    41.2090    41.9610 c3         1 UEU       0.188000
     33 O11        -67.0430    40.7870    42.2130 oh         1 UEU      -0.652000
     34 C10        -68.3210    42.4890    41.0930 c3         1 UEU      -0.103100
     35 C9         -69.0350    41.5240    43.3280 c3         1 UEU      -0.103100
     36 H1         -63.6030    37.1640    29.9680 h1         1 UEU       0.060700
     37 H2         -65.0450    36.1500    29.6980 h1         1 UEU       0.060700
     38 H3         -64.0270    34.2190    30.8570 hc         1 UEU       0.054700
     39 H4         -62.6990    34.8330    29.8700 hc         1 UEU       0.054700
     40 H5         -62.2400    34.6190    32.5150 h1         1 UEU       0.033700
     41 H6         -61.0400    36.6210    32.6220 hn         1 UEU       0.398500
     42 H7         -60.7910    35.9080    31.2000 hn         1 UEU       0.398500
     43 H9         -64.3450    35.3740    33.3740 h1         1 UEU       0.050200
     44 H10        -63.4640    36.9130    33.5040 h1         1 UEU       0.050200
     45 H11        -66.3930    35.9730    33.8140 ha         1 UEU       0.122000
     46 H12        -69.4050    36.9470    36.8120 ha         1 UEU       0.145000
     47 H13        -66.5260    32.8980    37.1810 ha         1 UEU       0.129000
     48 H14        -65.7430    34.8440    35.8740 ha         1 UEU       0.125000
     49 H15        -66.0730    40.2300    33.1110 ha         1 UEU       0.135000
     50 H16        -66.9990    40.7190    35.3400 ha         1 UEU       0.125000
     51 H17        -67.0860    38.3600    40.5910 ha         1 UEU       0.131000
     52 H18        -70.0500    40.9380    38.7990 ha         1 UEU       0.119000
     53 H19        -69.2260    40.3390    36.5540 ha         1 UEU       0.122000
     54 H20        -70.2120    40.3450    41.1690 hc         1 UEU       0.053700
     55 H21        -69.1450    39.1680    41.8870 hc         1 UEU       0.053700
     56 H22        -67.0900    40.0580    42.8660 ho         1 UEU       0.438000
     57 H23        -67.8130    43.2990    41.6300 hc         1 UEU       0.044033
     58 H24        -67.7710    42.3100    40.1620 hc         1 UEU       0.044033
     59 H25        -69.3300    42.8330    40.8350 hc         1 UEU       0.044033
     60 H26        -69.0700    40.6310    43.9650 hc         1 UEU       0.044033
     61 H27        -68.4730    42.3000    43.8610 hc         1 UEU       0.044033
     62 H28        -70.0630    41.8840    43.1940 hc         1 UEU       0.044033
@<TRIPOS>BOND
     1     1     2 2   
     2     2     3 1   
     3     2     9 1   
     4     3     4 1   
     5     3     8 1   
     6     4     5 1   
     7     4    36 1   
     8     4    37 1   
     9     5     6 1   
    10     5    38 1   
    11     5    39 1   
    12     6     7 1   
    13     6     8 1   
    14     6    40 1   
    15     7    41 1   
    16     7    42 1   
    17     8    43 1   
    18     8    44 1   
    19     9    10 ar  
    20     9    21 ar  
    21    10    11 ar  
    22    10    45 1   
    23    11    12 1   
    24    11    23 1   
    25    12    13 ar  
    26    12    20 ar  
    27    13    14 ar  
    28    13    46 1   
    29    14    15 1   
    30    14    16 ar  
    31    16    17 1   
    32    16    19 ar  
    33    17    18 3   
    34    19    20 ar  
    35    19    47 1   
    36    20    48 1   
    37    21    22 ar  
    38    21    49 1   
    39    22    23 2   
    40    22    50 1   
    41    23    24 1   
    42    24    25 1   
    43    24    30 2   
    44    25    26 1   
    45    25    27 ar  
    46    27    28 ar  
    47    27    51 1   
    48    28    29 ar  
    49    28    31 1   
    50    29    30 ar  
    51    29    52 1   
    52    30    53 1   
    53    31    32 1   
    54    31    54 1   
    55    31    55 1   
    56    32    33 1   
    57    32    34 1   
    58    32    35 1   
    59    33    56 1   
    60    34    57 1   
    61    34    58 1   
    62    34    59 1   
    63    35    60 1   
    64    35    61 1   
    65    35    62 1   
@<TRIPOS>SUBSTRUCTURE
     1 UEU         1 TEMP              0 ****  ****    0 ROOT
