@<TRIPOS>MOLECULE
UEU
   62    65     1     0     0
SMALL
abcg2


@<TRIPOS>ATOM
      1 O29        -66.1370    38.2240    31.0010 o          1 UEU      -0.596100
      2 C28        -65.6570    37.6190    31.9530 c          1 UEU       0.617700
      3 N30        -64.7360    36.6570    31.8100 n          1 UEU      -0.398800
      4 C34        -64.2610    36.2790    30.4830 c5         1 UEU       0.108000
      5 C33        -63.1870    35.2380    30.7790 c5         1 UEU      -0.091400
      6 C32        -62.6370    35.6670    32.1360 c5         1 UEU       0.140500
      7 N35        -61.7780    36.8290    31.9710 n8         1 UEU      -0.996200
      8 C31        -63.9120    36.0750    32.8660 c5         1 UEU       0.109000
      9 C16        -66.1130    37.9310    33.3440 ca         1 UEU      -0.135600
     10 C15        -66.5610    36.9320    34.1970 ca         1 UEU      -0.076000
     11 C14        -67.0640    37.2290    35.4600 cp         1 UEU      -0.042000
     12 C19        -67.5880    36.1210    36.2860 cp         1 UEU       0.022000
     13 C24        -68.8690    36.1930    36.8320 ca         1 UEU      -0.144000
     14 C23        -69.3520    35.1260    37.5530 ca         1 UEU       0.211000
     15 F25        -70.5800    35.1780    38.0680 f          1 UEU      -0.161000
     16 C22        -68.6030    33.9720    37.7520 ca         1 UEU      -0.063000
     17 C26        -69.1550    32.8860    38.4870 cg         1 UEU       0.328000
     18 N27        -69.5960    31.9990    39.0750 n1         1 UEU      -0.440000
     19 C21        -67.3210    33.9040    37.2060 ca         1 UEU      -0.047000
     20 C20        -66.8230    34.9700    36.4820 ca         1 UEU      -0.121000
     21 C17        -66.1820    39.2560    33.7590 ca         1 UEU      -0.056000
     22 C18        -66.6470    39.5590    35.0280 ca         1 UEU      -0.105000
     23 C13        -67.0880    38.5610    35.8940 cq         1 UEU       0.002000
     24 C2         -67.5680    38.9370    37.2400 cq         1 UEU      -0.094000
     25 C3         -66.9550    38.4670    38.3920 ca         1 UEU       0.189000
     26 F12        -65.8790    37.6720    38.2660 f          1 UEU      -0.176000
     27 C4         -67.3930    38.7840    39.6590 ca         1 UEU      -0.139000
     28 C5         -68.5010    39.6120    39.8190 ca         1 UEU      -0.031300
     29 C6         -69.1240    40.1090    38.6760 ca         1 UEU      -0.126000
     30 C1         -68.6620    39.7820    37.4110 ca         1 UEU      -0.075000
     31 C7         -68.9990    39.9640    41.1880 c3         1 UEU      -0.066100
     32 C8         -68.2770    41.1570    41.8540 c3         1 UEU       0.188000
     33 O11        -66.8880    40.9000    41.9660 oh         1 UEU      -0.652000
     34 C10        -68.4100    42.4220    41.0180 c3         1 UEU      -0.103100
     35 C9         -68.8930    41.3770    43.2340 c3         1 UEU      -0.103100
     36 H1         -63.8500    37.1460    29.9620 h1         1 UEU       0.060700
     37 H2         -65.0740    35.8830    29.8730 h1         1 UEU       0.060700
     38 H3         -63.6310    34.2440    30.8630 hc         1 UEU       0.054700
     39 H4         -62.4230    35.1930    30.0030 hc         1 UEU       0.054700
     40 H5         -62.1550    34.8310    32.6570 h1         1 UEU       0.033700
     41 H6         -61.4370    37.1350    32.8730 hn         1 UEU       0.398500
     42 H7         -60.9590    36.5710    31.4350 hn         1 UEU       0.398500
     43 H9         -64.3880    35.1940    33.3050 h1         1 UEU       0.050200
     44 H10        -63.7220    36.7890    33.6670 h1         1 UEU       0.050200
     45 H11        -66.5630    35.9010    33.8640 ha         1 UEU       0.122000
     46 H12        -69.4990    37.0600    36.6820 ha         1 UEU       0.145000
     47 H13        -66.7220    33.0160    37.3540 ha         1 UEU       0.129000
     48 H14        -65.8240    34.9100    36.0710 ha         1 UEU       0.125000
     49 H15        -65.8550    40.0510    33.1020 ha         1 UEU       0.135000
     50 H16        -66.6590    40.5890    35.3610 ha         1 UEU       0.125000
     51 H17        -66.8780    38.3740    40.5200 ha         1 UEU       0.131000
     52 H18        -69.9920    40.7500    38.7760 ha         1 UEU       0.119000
     53 H19        -69.1720    40.1640    36.5360 ha         1 UEU       0.122000
     54 H20        -70.0670    40.1930    41.1390 hc         1 UEU       0.053700
     55 H21        -68.8990    39.0940    41.8460 hc         1 UEU       0.053700
     56 H22        -66.7650    40.1330    42.5370 ho         1 UEU       0.438000
     57 H23        -67.9610    43.2710    41.5360 hc         1 UEU       0.044033
     58 H24        -67.9220    42.3220    40.0480 hc         1 UEU       0.044033
     59 H25        -69.4610    42.6540    40.8420 hc         1 UEU       0.044033
     60 H26        -68.8000    40.4820    43.8550 hc         1 UEU       0.044033
     61 H27        -68.4010    42.2020    43.7520 hc         1 UEU       0.044033
     62 H28        -69.9550    41.6140    43.1570 hc         1 UEU       0.044033
@<TRIPOS>BOND
     1     1     2 2   
     2     2     3 1   
     3     2     9 1   
     4     3     4 1   
     5     3     8 1   
     6     4     5 1   
     7     4    36 1   
     8     4    37 1   
     9     5     6 1   
    10     5    38 1   
    11     5    39 1   
    12     6     7 1   
    13     6     8 1   
    14     6    40 1   
    15     7    41 1   
    16     7    42 1   
    17     8    43 1   
    18     8    44 1   
    19     9    10 ar  
    20     9    21 ar  
    21    10    11 ar  
    22    10    45 1   
    23    11    12 1   
    24    11    23 1   
    25    12    13 ar  
    26    12    20 ar  
    27    13    14 ar  
    28    13    46 1   
    29    14    15 1   
    30    14    16 ar  
    31    16    17 1   
    32    16    19 ar  
    33    17    18 3   
    34    19    20 ar  
    35    19    47 1   
    36    20    48 1   
    37    21    22 ar  
    38    21    49 1   
    39    22    23 2   
    40    22    50 1   
    41    23    24 1   
    42    24    25 1   
    43    24    30 2   
    44    25    26 1   
    45    25    27 ar  
    46    27    28 ar  
    47    27    51 1   
    48    28    29 ar  
    49    28    31 1   
    50    29    30 ar  
    51    29    52 1   
    52    30    53 1   
    53    31    32 1   
    54    31    54 1   
    55    31    55 1   
    56    32    33 1   
    57    32    34 1   
    58    32    35 1   
    59    33    56 1   
    60    34    57 1   
    61    34    58 1   
    62    34    59 1   
    63    35    60 1   
    64    35    61 1   
    65    35    62 1   
@<TRIPOS>SUBSTRUCTURE
     1 UEU         1 TEMP              0 ****  ****    0 ROOT
