@<TRIPOS>MOLECULE
UEX
   57    61     1     0     0
SMALL
No Charge or Current Charge


@<TRIPOS>ATOM
      1 C10         86.5250    64.6870    97.5400 ca         1 UEX       0.234500
      2 C15         83.6690    67.2590    95.0090 ca         1 UEX       0.211400
      3 C17         83.6730    65.8800    92.9900 ca         1 UEX      -0.049000
      4 C20         83.1560    64.8680    95.1260 ca         1 UEX      -0.050000
      5 C21         84.2210    68.3250    92.8250 c          1 UEX       0.584600
      6 C28         85.3830    71.0160    97.7040 ca         1 UEX      -0.163300
      7 C01         81.7390    65.6650    97.7490 c3         1 UEX      -0.089100
      8 C02         83.1170    66.1880    97.2980 c3         1 UEX       0.286800
      9 C04         85.5450    65.6930    97.8490 ca         1 UEX       0.295000
     10 C05         85.9800    67.0200    98.0370 ca         1 UEX      -0.194000
     11 C06         87.3450    67.3170    97.9030 ca         1 UEX      -0.130000
     12 C07         88.2390    66.2840    97.5860 ca         1 UEX       0.376000
     13 C11         86.0980    63.2090    97.3340 c          1 UEX       0.621500
     14 C14         83.3120    66.1140    95.7720 ca         1 UEX      -0.100300
     15 C16         83.8450    67.1300    93.6220 ca         1 UEX      -0.218600
     16 C18         83.3340    64.7460    93.7400 ca         1 UEX      -0.097300
     17 C19         83.1580    63.3960    93.0600 c3         1 UEX      -0.043800
     18 C25         84.2010    69.5040    94.9140 cc         1 UEX       0.699800
     19 C27         85.7770    70.6350    96.3050 c5         1 UEX       0.270100
     20 C29         84.0420    71.3220    97.7810 ca         1 UEX      -0.054300
     21 C30         83.4940    71.6920    99.0170 ca         1 UEX      -0.142000
     22 C31         84.3580    71.7320   100.1300 ca         1 UEX       0.337900
     23 C33         86.1880    71.0730    98.8490 ca         1 UEX       0.356900
     24 C34         83.3730    71.1850    96.4360 c5         1 UEX       0.258100
     25 N03         84.1720    65.4210    97.9720 nu         1 UEX      -0.970200
     26 N09         87.8590    65.0040    97.4090 nb         1 UEX      -0.602000
     27 N23         84.3760    69.5080    93.5390 n          1 UEX      -0.352300
     28 N26         84.4850    70.6980    95.5360 nh         1 UEX      -0.757600
     29 N32         85.6830    71.4300   100.0580 nb         1 UEX      -0.672000
     30 N35         83.8510    68.4760    95.6730 nd         1 UEX      -0.689100
     31 O12         84.9540    62.8590    97.6120 o          1 UEX      -0.698000
     32 O13         86.9260    62.4050    96.9130 o          1 UEX      -0.698000
     33 Cl08        89.9540    66.6140    97.4040 cl         1 UEX      -0.245000
     34 H171        83.8090    65.7860    91.9140 ha         1 UEX       0.124000
     35 H201        82.9030    63.9830    95.7040 ha         1 UEX       0.149000
     36 H243        84.1020    71.5790    93.1180 h1         1 UEX       0.049700
     37 H241        85.7920    71.0070    93.0210 h1         1 UEX       0.049700
     38 H242        84.6340    70.6360    91.7170 h1         1 UEX       0.049700
     39 H011        81.6090    65.8110    98.8280 hc         1 UEX       0.038033
     40 H013        80.9400    66.2140    97.2360 hc         1 UEX       0.038033
     41 H012        81.6160    64.5980    97.5340 hc         1 UEX       0.038033
     42 H021        83.1650    67.2300    97.6390 h1         1 UEX       0.065700
     43 H051        85.2750    67.8080    98.2830 ha         1 UEX       0.106000
     44 H061        87.7110    68.3310    98.0410 ha         1 UEX       0.106000
     45 H191        83.4800    62.5760    93.7130 hc         1 UEX       0.043700
     46 H192        82.1080    63.2240    92.7990 hc         1 UEX       0.043700
     47 H193        83.7480    63.3310    92.1380 hc         1 UEX       0.043700
     48 H272        86.2390    69.6370    96.2880 h1         1 UEX       0.060700
     49 H271        86.5110    71.3470    95.9020 h1         1 UEX       0.060700
     50 H301        82.4410    71.9390    99.1220 ha         1 UEX       0.132000
     51 H311        83.9800    72.0140   101.1120 h4         1 UEX       0.018100
     52 H331        87.2500    70.8310    98.8080 h4         1 UEX       0.019100
     53 H342        82.9900    72.1580    96.0990 h1         1 UEX       0.083200
     54 H341        82.5160    70.4990    96.4950 h1         1 UEX       0.083200
     55 H031        84.0170    64.4010    97.9540 hn         1 UEX       0.549000
     56 C24         84.7480    70.7500    92.8010 c3         1 UEX       0.081300
     57 O22         84.3860    68.2590    91.6120 o          1 UEX      -0.553000
@<TRIPOS>BOND
     1     1     9 ar  
     2     1    13 1   
     3     1    26 ar  
     4     2    14 ar  
     5     2    15 ar  
     6     2    30 1   
     7     3    15 ar  
     8     3    16 ar  
     9     3    34 1   
    10     4    14 ar  
    11     4    16 ar  
    12     4    35 1   
    13     5    15 1   
    14     5    27 1   
    15     5    57 2   
    16     6    19 1   
    17     6    20 ar  
    18     6    23 ar  
    19     7     8 1   
    20     7    39 1   
    21     7    40 1   
    22     7    41 1   
    23     8    14 1   
    24     8    25 1   
    25     8    42 1   
    26     9    10 ar  
    27     9    25 1   
    28    10    11 ar  
    29    10    43 1   
    30    11    12 ar  
    31    11    44 1   
    32    12    26 ar  
    33    12    33 1   
    34    13    31 1   
    35    13    32 1   
    36    16    17 1   
    37    17    45 1   
    38    17    46 1   
    39    17    47 1   
    40    18    27 1   
    41    18    28 1   
    42    18    30 2   
    43    19    28 1   
    44    19    48 1   
    45    19    49 1   
    46    20    21 ar  
    47    20    24 1   
    48    21    22 ar  
    49    21    50 1   
    50    22    29 ar  
    51    22    51 1   
    52    23    29 ar  
    53    23    52 1   
    54    24    28 1   
    55    24    53 1   
    56    24    54 1   
    57    25    55 1   
    58    27    56 1   
    59    36    56 1   
    60    37    56 1   
    61    38    56 1   
@<TRIPOS>SUBSTRUCTURE
     1 UEX         1 TEMP              0 ****  ****    0 ROOT
