@<TRIPOS>MOLECULE
UEX
   57    61     1     0     0
SMALL
abcg2


@<TRIPOS>ATOM
      1 C10         85.8020    63.2950    98.0640 ca         1 UEX       0.234500
      2 C15         83.9270    67.3150    94.9980 ca         1 UEX       0.211400
      3 C17         84.3590    66.2380    92.8590 ca         1 UEX      -0.049000
      4 C20         83.8480    64.9280    94.7880 ca         1 UEX      -0.050000
      5 C21         84.3940    68.7090    93.0360 c          1 UEX       0.584600
      6 C28         85.0060    72.4010    97.2920 ca         1 UEX      -0.163300
      7 C01         81.8220    65.8850    97.1990 c3         1 UEX      -0.089100
      8 C02         83.3390    65.9260    97.0460 c3         1 UEX       0.286800
      9 C04         85.2500    64.5760    97.8000 ca         1 UEX       0.295000
     10 C05         86.1560    65.6480    97.6910 ca         1 UEX      -0.194000
     11 C06         87.5040    65.4470    97.8830 ca         1 UEX      -0.130000
     12 C07         87.9180    64.1550    98.1690 ca         1 UEX       0.376000
     13 C11         84.9570    62.0210    98.1220 c          1 UEX       0.621500
     14 C14         83.7180    66.0480    95.5810 ca         1 UEX      -0.100300
     15 C16         84.2410    67.3940    93.6380 ca         1 UEX      -0.218600
     16 C18         84.1670    64.9950    93.4220 ca         1 UEX      -0.097300
     17 C19         84.2960    63.7330    92.6200 c3         1 UEX      -0.043800
     18 C25         84.0460    69.5910    95.2540 cc         1 UEX       0.699800
     19 C27         85.0890    71.7340    95.9570 c5         1 UEX       0.270100
     20 C29         84.1530    71.7120    98.1330 ca         1 UEX      -0.054300
     21 C30         83.9380    72.1800    99.4160 ca         1 UEX      -0.142000
     22 C31         84.6070    73.3410    99.7840 ca         1 UEX       0.337900
     23 C33         85.6280    73.5470    97.7520 ca         1 UEX       0.356900
     24 C34         83.6290    70.4950    97.4530 c5         1 UEX       0.258100
     25 N03         83.9090    64.7610    97.6750 nu         1 UEX      -0.970200
     26 N09         87.1100    63.1370    98.2470 nb         1 UEX      -0.602000
     27 N23         84.1890    69.7840    93.8960 n          1 UEX      -0.352300
     28 N26         84.0500    70.6930    96.0630 nh         1 UEX      -0.757600
     29 N32         85.4300    74.0100    98.9820 nb         1 UEX      -0.672000
     30 N35         83.8810    68.4270    95.7870 nd         1 UEX      -0.689100
     31 O12         83.7290    62.1500    97.8830 o          1 UEX      -0.698000
     32 O13         85.5450    60.9650    98.3840 o          1 UEX      -0.698000
     33 CL08        89.6200    63.8450    98.4260 cl         1 UEX      -0.245000
     34 H171        84.6030    66.3290    91.8080 ha         1 UEX       0.124000
     35 H201        83.7070    63.9500    95.2380 ha         1 UEX       0.149000
     36 H243        83.3440    71.6920    93.9000 h1         1 UEX       0.049700
     37 H241        84.9290    71.6070    93.0970 h1         1 UEX       0.049700
     38 H242        83.4950    70.9460    92.3140 h1         1 UEX       0.049700
     39 H011        81.5410    65.8440    98.2520 hc         1 UEX       0.038033
     40 H013        81.3730    66.7750    96.7600 hc         1 UEX       0.038033
     41 H012        81.4020    65.0120    96.6960 hc         1 UEX       0.038033
     42 H021        83.6900    66.8220    97.5650 h1         1 UEX       0.065700
     43 H051        85.8070    66.6470    97.4630 ha         1 UEX       0.106000
     44 H061        88.2060    66.2650    97.8080 ha         1 UEX       0.106000
     45 H191        85.0820    63.0900    93.0200 hc         1 UEX       0.043700
     46 H192        83.3710    63.1550    92.6400 hc         1 UEX       0.043700
     47 H193        84.5350    63.9440    91.5790 hc         1 UEX       0.043700
     48 H272        86.0790    71.3010    95.7780 h1         1 UEX       0.060700
     49 H271        84.8910    72.4440    95.1550 h1         1 UEX       0.060700
     50 H301        83.2810    71.6780   100.1130 ha         1 UEX       0.132000
     51 H311        84.4690    73.7490   100.7780 h4         1 UEX       0.018100
     52 H331        86.3020    74.1140    97.1170 h4         1 UEX       0.019100
     53 H342        82.5430    70.3970    97.5200 h1         1 UEX       0.083200
     54 H341        84.0650    69.5940    97.8940 h1         1 UEX       0.083200
     55 H031        83.4050    63.8740    97.6470 hn         1 UEX       0.549000
     56 C24         83.9880    71.0870    93.2710 c3         1 UEX       0.081300
     57 O22         84.6330    68.9010    91.8570 o          1 UEX      -0.553000
@<TRIPOS>BOND
     1     1     9 ar  
     2     1    13 1   
     3     1    26 ar  
     4     2    14 ar  
     5     2    15 ar  
     6     2    30 1   
     7     3    15 ar  
     8     3    16 ar  
     9     3    34 1   
    10     4    14 ar  
    11     4    16 ar  
    12     4    35 1   
    13     5    15 1   
    14     5    27 1   
    15     5    57 2   
    16     6    19 1   
    17     6    20 ar  
    18     6    23 ar  
    19     7     8 1   
    20     7    39 1   
    21     7    40 1   
    22     7    41 1   
    23     8    14 1   
    24     8    25 1   
    25     8    42 1   
    26     9    10 ar  
    27     9    25 1   
    28    10    11 ar  
    29    10    43 1   
    30    11    12 ar  
    31    11    44 1   
    32    12    26 ar  
    33    12    33 1   
    34    13    31 1   
    35    13    32 1   
    36    16    17 1   
    37    17    45 1   
    38    17    46 1   
    39    17    47 1   
    40    18    27 1   
    41    18    28 1   
    42    18    30 2   
    43    19    28 1   
    44    19    48 1   
    45    19    49 1   
    46    20    21 ar  
    47    20    24 1   
    48    21    22 ar  
    49    21    50 1   
    50    22    29 ar  
    51    22    51 1   
    52    23    29 ar  
    53    23    52 1   
    54    24    28 1   
    55    24    53 1   
    56    24    54 1   
    57    25    55 1   
    58    27    56 1   
    59    36    56 1   
    60    37    56 1   
    61    38    56 1   
@<TRIPOS>SUBSTRUCTURE
     1 UEX         1 TEMP              0 ****  ****    0 ROOT
