@<TRIPOS>MOLECULE
UEY
   41    44     1     0     0
SMALL
abcg2


@<TRIPOS>ATOM
      1 C13         -8.8980    21.3580   -20.3450 ca         1 UEY      -0.108500
      2 C18         -4.7210    21.6860   -27.1590 ca         1 UEY      -0.111000
      3 C17         -3.3350    21.5990   -27.1840 ca         1 UEY      -0.107000
      4 C16         -2.6450    21.3410   -26.0080 ca         1 UEY      -0.111000
      5 C15         -3.3380    21.1730   -24.8160 ca         1 UEY      -0.098000
      6 C19         -5.4100    21.5150   -25.9670 ca         1 UEY      -0.098000
      7 C11         -6.8730    22.2340   -19.4010 ca         1 UEY      -0.108500
      8 C12         -8.1520    21.7190   -19.2320 ca         1 UEY      -0.108000
      9 C1          -7.2190    19.3180   -24.0440 ca         1 UEY      -0.244000
     10 C2          -7.7090    17.9730   -23.9950 ca         1 UEY       0.651900
     11 N1          -7.0880    16.9860   -23.3600 nb         1 UEY      -0.765000
     12 C3          -5.9570    17.3590   -22.7750 ca         1 UEY       0.397500
     13 C4          -5.3870    18.6280   -22.7590 ca         1 UEY      -0.078600
     14 C5          -6.0500    19.6730   -23.4260 ca         1 UEY       0.094700
     15 C6          -5.4570    21.0590   -23.4660 c3         1 UEY       0.023900
     16 N2          -8.8490    17.6710   -24.6520 nv         1 UEY      -1.070900
     17 C7          -4.7270    21.2610   -24.7790 ca         1 UEY      -0.080300
     18 C9          -7.0860    22.0220   -21.8020 ca         1 UEY      -0.083300
     19 C10         -6.3480    22.3840   -20.6770 ca         1 UEY      -0.102500
     20 C14         -8.3670    21.5090   -21.6200 ca         1 UEY      -0.102500
     21 N3          -5.0860    16.6230   -22.0570 na         1 UEY      -0.182100
     22 N4          -4.0650    17.3740   -21.6340 nc         1 UEY      -0.173400
     23 N5          -4.2310    18.5740   -22.0450 nd         1 UEY      -0.206400
     24 H1          -9.8970    20.9580   -20.2220 ha         1 UEY       0.112000
     25 H2          -5.2690    21.8880   -28.0700 ha         1 UEY       0.112500
     26 H3          -2.7970    21.7330   -28.1130 ha         1 UEY       0.112000
     27 H4          -1.5650    21.2720   -26.0150 ha         1 UEY       0.112500
     28 H5          -2.7940    20.9690   -23.9010 ha         1 UEY       0.114500
     29 H6          -6.4920    21.5790   -25.9730 ha         1 UEY       0.114500
     30 H7          -6.2860    22.5230   -18.5390 ha         1 UEY       0.112000
     31 H8          -8.5650    21.6020   -18.2380 ha         1 UEY       0.112000
     32 H9          -7.8010    20.0470   -24.5930 ha         1 UEY       0.122000
     33 H10         -4.7030    21.1070   -22.6740 hc         1 UEY       0.085700
     34 H11         -9.2780    16.7780   -24.4790 hn         1 UEY       0.487500
     35 H12         -9.4640    18.4070   -24.9520 hn         1 UEY       0.487500
     36 H13         -5.9670    23.1230   -23.2520 hc         1 UEY       0.052200
     37 H14         -7.2750    22.1800   -23.9280 hc         1 UEY       0.052200
     38 H15         -5.3510    22.7920   -20.8020 ha         1 UEY       0.108500
     39 H16         -8.9580    21.2260   -22.4830 ha         1 UEY       0.108500
     40 H17         -5.1220    15.6420   -21.8210 hn         1 UEY       0.387000
     41 C8          -6.4850    22.1640   -23.1740 c3         1 UEY      -0.021100
@<TRIPOS>BOND
     1     1     8 ar  
     2     1    20 ar  
     3     1    24 1   
     4     2     3 ar  
     5     2     6 ar  
     6     2    25 1   
     7     3     4 ar  
     8     3    26 1   
     9     4     5 ar  
    10     4    27 1   
    11     5    17 ar  
    12     5    28 1   
    13     6    17 ar  
    14     6    29 1   
    15     7     8 ar  
    16     7    19 ar  
    17     7    30 1   
    18     8    31 1   
    19     9    10 ar  
    20     9    14 ar  
    21     9    32 1   
    22    10    11 ar  
    23    10    16 1   
    24    11    12 ar  
    25    12    13 ar  
    26    12    21 1   
    27    13    14 ar  
    28    13    23 1   
    29    14    15 1   
    30    15    17 1   
    31    15    33 1   
    32    15    41 1   
    33    16    34 1   
    34    16    35 1   
    35    18    19 ar  
    36    18    20 ar  
    37    18    41 1   
    38    19    38 1   
    39    20    39 1   
    40    21    22 1   
    41    21    40 1   
    42    22    23 2   
    43    36    41 1   
    44    37    41 1   
@<TRIPOS>SUBSTRUCTURE
     1 UEY         1 TEMP              0 ****  ****    0 ROOT
