@<TRIPOS>MOLECULE
UEY
   41    44     1     0     0
SMALL
No Charge or Current Charge


@<TRIPOS>ATOM
      1 C13         -8.6880    21.0710   -20.1750 ca         1 UEY      -0.108500
      2 C18         -4.7240    22.1640   -27.1860 ca         1 UEY      -0.111000
      3 C17         -3.4110    21.6960   -27.3440 ca         1 UEY      -0.107000
      4 C16         -2.7720    21.0380   -26.2810 ca         1 UEY      -0.111000
      5 C15         -3.4460    20.8520   -25.0620 ca         1 UEY      -0.098000
      6 C19         -5.4000    21.9790   -25.9670 ca         1 UEY      -0.098000
      7 C11         -6.7620    22.2980   -19.3360 ca         1 UEY      -0.108500
      8 C12         -7.9540    21.5930   -19.0970 ca         1 UEY      -0.108000
      9 C1          -7.0330    19.2400   -24.3810 ca         1 UEY      -0.244000
     10 C2          -7.5210    17.9340   -24.2670 ca         1 UEY       0.651900
     11 N1          -7.1300    17.0400   -23.3670 nb         1 UEY      -0.765000
     12 C3          -6.1760    17.4640   -22.5170 ca         1 UEY       0.397500
     13 C4          -5.6180    18.7140   -22.5340 ca         1 UEY      -0.078600
     14 C5          -6.0340    19.6680   -23.4820 ca         1 UEY       0.094700
     15 C6          -5.4580    21.0840   -23.5390 c3         1 UEY       0.023900
     16 N2          -8.4670    17.4280   -25.0540 nv         1 UEY      -1.070900
     17 C7          -4.7630    21.3250   -24.8880 ca         1 UEY      -0.080300
     18 C9          -7.0360    21.9600   -21.7380 ca         1 UEY      -0.083300
     19 C10         -6.3050    22.4810   -20.6530 ca         1 UEY      -0.102500
     20 C14         -8.2310    21.2540   -21.4920 ca         1 UEY      -0.102500
     21 N3          -5.5490    16.8290   -21.4890 na         1 UEY      -0.182100
     22 N4          -4.6260    17.6790   -20.8920 nc         1 UEY      -0.173400
     23 N5          -4.6650    18.8420   -21.5320 nd         1 UEY      -0.206400
     24 H1          -9.6090    20.5230   -19.9920 ha         1 UEY       0.112000
     25 H2          -5.2230    22.6700   -28.0110 ha         1 UEY       0.112500
     26 H3          -2.8900    21.8400   -28.2880 ha         1 UEY       0.112000
     27 H4          -1.7550    20.6700   -26.4020 ha         1 UEY       0.112500
     28 H5          -2.9400    20.3350   -24.2490 ha         1 UEY       0.114500
     29 H6          -6.4190    22.3450   -25.8790 ha         1 UEY       0.114500
     30 H7          -6.1920    22.7010   -18.5020 ha         1 UEY       0.112000
     31 H8          -8.3070    21.4510   -18.0780 ha         1 UEY       0.112000
     32 H9          -7.4160    19.9040   -25.1490 ha         1 UEY       0.122000
     33 H10         -4.6830    21.1760   -22.7690 hc         1 UEY       0.085700
     34 H11         -8.8830    16.5750   -24.7010 hn         1 UEY       0.487500
     35 H12         -9.0970    18.0810   -25.5050 hn         1 UEY       0.487500
     36 H13         -6.0950    23.1440   -23.2780 hc         1 UEY       0.052200
     37 H14         -7.3710    22.0910   -23.8630 hc         1 UEY       0.052200
     38 H15         -5.3790    23.0240   -20.8290 ha         1 UEY       0.108500
     39 H16         -8.8030    20.8420   -22.3200 ha         1 UEY       0.108500
     40 H17         -5.7060    15.8800   -21.1780 hn         1 UEY       0.387000
     41 C8          -6.5280    22.1430   -23.1640 c3         1 UEY      -0.021100
@<TRIPOS>BOND
     1     1     8 ar  
     2     1    20 ar  
     3     1    24 1   
     4     2     3 ar  
     5     2     6 ar  
     6     2    25 1   
     7     3     4 ar  
     8     3    26 1   
     9     4     5 ar  
    10     4    27 1   
    11     5    17 ar  
    12     5    28 1   
    13     6    17 ar  
    14     6    29 1   
    15     7     8 ar  
    16     7    19 ar  
    17     7    30 1   
    18     8    31 1   
    19     9    10 ar  
    20     9    14 ar  
    21     9    32 1   
    22    10    11 ar  
    23    10    16 1   
    24    11    12 ar  
    25    12    13 ar  
    26    12    21 1   
    27    13    14 ar  
    28    13    23 1   
    29    14    15 1   
    30    15    17 1   
    31    15    33 1   
    32    15    41 1   
    33    16    34 1   
    34    16    35 1   
    35    18    19 ar  
    36    18    20 ar  
    37    18    41 1   
    38    19    38 1   
    39    20    39 1   
    40    21    22 1   
    41    21    40 1   
    42    22    23 2   
    43    36    41 1   
    44    37    41 1   
@<TRIPOS>SUBSTRUCTURE
     1 UEY         1 TEMP              0 ****  ****    0 ROOT
