@<TRIPOS>MOLECULE
UEZ
   86    91     1     0     0
SMALL
bcc


@<TRIPOS>ATOM
      1 C10        -43.4660    31.3300    23.6830 ca         1 UEZ      -0.122000
      2 C15        -43.3350    36.1490    25.5330 c6         1 UEZ       0.114800
      3 C17        -43.5800    37.8070    23.6200 c6         1 UEZ      -0.104400
      4 C21        -40.7680    38.1250    25.1750 ca         1 UEZ       0.734200
      5 C28        -41.7680    42.2690    23.8620 ca         1 UEZ      -0.115300
      6 C02        -42.9430    24.6630    23.2640 c6         1 UEZ      -0.048000
      7 C03        -41.9600    23.8770    24.1280 c3         1 UEZ      -0.083100
      8 C04        -43.5560    25.8020    24.0900 c6         1 UEZ      -0.066900
      9 C05        -44.3510    26.7880    23.2490 c6         1 UEZ       0.170800
     10 C07        -44.2290    28.3720    21.4460 c3         1 UEZ       0.215100
     11 C08        -44.4230    29.6170    22.2690 ca         1 UEZ      -0.071300
     12 C09        -43.3230    30.1860    22.9470 ca         1 UEZ      -0.115000
     13 C11        -44.7150    31.9870    23.7990 ca         1 UEZ      -0.083000
     14 C12        -44.8970    33.1870    24.5730 ca         1 UEZ       0.214600
     15 C14        -43.8670    34.8390    26.1450 c3         1 UEZ       0.204800
     16 C16        -44.1930    36.6190    24.3580 c6         1 UEZ      -0.063400
     17 C18        -42.1390    37.4870    23.2460 c6         1 UEZ       0.204800
     18 C19        -41.8820    35.9560    25.0710 c6         1 UEZ       0.180800
     19 C23        -39.6770    38.7090    27.0760 ca         1 UEZ       0.716900
     20 C25        -39.9600    40.3400    25.5480 ca         1 UEZ       0.731200
     21 C27        -40.2600    42.2260    23.9900 c3         1 UEZ       0.283100
     22 C29        -42.3740    41.9860    22.6430 ca         1 UEZ      -0.116000
     23 C30        -43.7560    42.0250    22.5090 ca         1 UEZ      -0.126500
     24 C31        -44.5500    42.3490    23.6010 ca         1 UEZ      -0.123000
     25 C32        -43.9530    42.6350    24.8220 ca         1 UEZ      -0.126500
     26 C33        -42.5710    42.5960    24.9510 ca         1 UEZ      -0.116000
     27 C34        -40.6040    39.4330    24.7080 ca         1 UEZ      -0.499600
     28 C36        -46.1480    33.7820    24.5750 ca         1 UEZ      -0.238000
     29 C37        -47.2250    33.2170    23.8740 ca         1 UEZ      -0.073000
     30 C38        -47.0840    32.0620    23.1550 ca         1 UEZ      -0.179000
     31 C39        -45.8210    31.4320    23.1030 ca         1 UEZ       0.004000
     32 C40        -45.6380    30.2410    22.3570 ca         1 UEZ      -0.127000
     33 C41        -43.0410    26.2900    21.3040 c6         1 UEZ       0.170800
     34 C42        -42.1970    25.2920    22.0810 c6         1 UEZ      -0.066900
     35 N06        -43.5370    27.3360    22.1790 n3         1 UEZ      -0.724600
     36 N13        -43.8350    33.7030    25.2620 nu         1 UEZ      -0.789600
     37 N20        -41.3730    37.1560    24.4360 nh         1 UEZ      -0.747300
     38 N22        -40.2890    37.7690    26.3820 nb         1 UEZ      -0.832000
     39 N24        -39.4810    39.9710    26.7520 nb         1 UEZ      -0.817000
     40 N26        -39.7850    41.6330    25.2120 nu         1 UEZ      -0.884900
     41 O35        -43.4060    37.1630    26.5180 oh         1 UEZ      -0.592800
     42 H1         -42.5800    31.7230    24.1640 ha         1 UEZ       0.119000
     43 H2         -43.6090    38.7110    24.2350 hc         1 UEZ       0.057200
     44 H3         -44.1560    38.0220    22.7170 hc         1 UEZ       0.057200
     45 H4         -44.5610    23.2580    23.6150 hc         1 UEZ       0.032367
     46 H5         -44.7760    24.1970    22.1430 hc         1 UEZ       0.032367
     47 H6         -43.5950    22.8960    22.1840 hc         1 UEZ       0.032367
     48 H7         -42.4640    23.4230    24.9840 hc         1 UEZ       0.032367
     49 H8         -41.4890    23.0750    23.5550 hc         1 UEZ       0.032367
     50 H9         -41.1660    24.5220    24.5130 hc         1 UEZ       0.032367
     51 H10        -42.7530    26.3490    24.5960 hc         1 UEZ       0.045950
     52 H11        -44.1990    25.3920    24.8740 hc         1 UEZ       0.045950
     53 H12        -44.6910    27.6070    23.8880 h1         1 UEZ       0.031200
     54 H13        -45.2630    26.3080    22.8510 h1         1 UEZ       0.031200
     55 H14        -43.6210    28.6270    20.5720 h1         1 UEZ       0.037200
     56 H15        -45.2030    28.0330    21.0540 h1         1 UEZ       0.037200
     57 H16        -42.3550    29.7060    22.8830 ha         1 UEZ       0.144000
     58 H17        -44.8770    35.0100    26.5250 h1         1 UEZ       0.052700
     59 H18        -43.2520    34.5970    27.0180 h1         1 UEZ       0.052700
     60 H19        -45.1970    36.8630    24.7160 hc         1 UEZ       0.056700
     61 H20        -44.3050    35.7930    23.6510 hc         1 UEZ       0.056700
     62 H21        -42.1150    36.6110    22.5910 h1         1 UEZ       0.055700
     63 H22        -41.6700    38.2940    22.6870 h1         1 UEZ       0.055700
     64 H23        -41.8300    35.1410    24.3450 h1         1 UEZ       0.071200
     65 H24        -41.2460    35.6780    25.9120 h1         1 UEZ       0.071200
     66 H25        -39.2890    38.4030    28.0430 h5         1 UEZ       0.037100
     67 H26        -39.8410    41.7060    23.1230 h1         1 UEZ       0.054200
     68 H27        -39.8610    43.2410    23.9560 h1         1 UEZ       0.054200
     69 H28        -41.7610    41.7190    21.7890 ha         1 UEZ       0.131000
     70 H29        -44.2110    41.7960    21.5540 ha         1 UEZ       0.132000
     71 H30        -45.6280    42.3750    23.5020 ha         1 UEZ       0.132000
     72 H31        -44.5650    42.8880    25.6780 ha         1 UEZ       0.132000
     73 H32        -42.1170    42.8120    25.9110 ha         1 UEZ       0.131000
     74 H33        -40.9910    39.7490    23.7550 ha         1 UEZ       0.151000
     75 H34        -46.3180    34.7000    25.1190 ha         1 UEZ       0.132000
     76 H35        -48.1850    33.7170    23.9140 ha         1 UEZ       0.126000
     77 H36        -47.9200    31.6280    22.6190 ha         1 UEZ       0.131000
     78 H37        -46.4970    29.8220    21.8450 ha         1 UEZ       0.128000
     79 H38        -42.4260    26.7500    20.5260 h1         1 UEZ       0.031200
     80 H39        -43.8640    25.7730    20.7810 h1         1 UEZ       0.031200
     81 H40        -41.8400    24.5100    21.4040 hc         1 UEZ       0.045950
     82 H41        -41.3100    25.8140    22.4550 hc         1 UEZ       0.045950
     83 H43        -43.0280    33.1150    25.3620 hn         1 UEZ       0.427800
     84 H44        -39.3330    42.2180    25.8950 hn         1 UEZ       0.451800
     85 H45        -42.7190    37.0060    27.1760 ho         1 UEZ       0.415000
     86 C01        -44.0320    23.7060    22.7710 c3         1 UEZ      -0.083100
@<TRIPOS>BOND
     1     1    12 ar  
     2     1    13 ar  
     3     1    42 1   
     4     2    15 1   
     5     2    16 1   
     6     2    18 1   
     7     2    41 1   
     8     3    16 1   
     9     3    17 1   
    10     3    43 1   
    11     3    44 1   
    12     4    27 ar  
    13     4    37 1   
    14     4    38 ar  
    15     5    21 1   
    16     5    22 ar  
    17     5    26 ar  
    18     6     7 1   
    19     6     8 1   
    20     6    34 1   
    21     6    86 1   
    22     7    48 1   
    23     7    49 1   
    24     7    50 1   
    25     8     9 1   
    26     8    51 1   
    27     8    52 1   
    28     9    35 1   
    29     9    53 1   
    30     9    54 1   
    31    10    11 1   
    32    10    35 1   
    33    10    55 1   
    34    10    56 1   
    35    11    12 ar  
    36    11    32 ar  
    37    12    57 1   
    38    13    14 ar  
    39    13    31 ar  
    40    14    28 ar  
    41    14    36 1   
    42    15    36 1   
    43    15    58 1   
    44    15    59 1   
    45    16    60 1   
    46    16    61 1   
    47    17    37 1   
    48    17    62 1   
    49    17    63 1   
    50    18    37 1   
    51    18    64 1   
    52    18    65 1   
    53    19    38 ar  
    54    19    39 ar  
    55    19    66 1   
    56    20    27 ar  
    57    20    39 ar  
    58    20    40 1   
    59    21    40 1   
    60    21    67 1   
    61    21    68 1   
    62    22    23 ar  
    63    22    69 1   
    64    23    24 ar  
    65    23    70 1   
    66    24    25 ar  
    67    24    71 1   
    68    25    26 ar  
    69    25    72 1   
    70    26    73 1   
    71    27    74 1   
    72    28    29 ar  
    73    28    75 1   
    74    29    30 ar  
    75    29    76 1   
    76    30    31 ar  
    77    30    77 1   
    78    31    32 ar  
    79    32    78 1   
    80    33    34 1   
    81    33    35 1   
    82    33    79 1   
    83    33    80 1   
    84    34    81 1   
    85    34    82 1   
    86    36    83 1   
    87    40    84 1   
    88    41    85 1   
    89    45    86 1   
    90    46    86 1   
    91    47    86 1   
@<TRIPOS>SUBSTRUCTURE
     1 UEZ         1 TEMP              0 ****  ****    0 ROOT
