@<TRIPOS>MOLECULE
UEZ
   86    91     1     0     0
SMALL
No Charge or Current Charge


@<TRIPOS>ATOM
      1 C10        -44.0990    31.9980    24.5280 ca         1 UEZ      -0.104000
      2 C15        -45.3580    36.2610    25.0930 c6         1 UEZ       0.138000
      3 C17        -45.2040    37.2450    22.7200 c6         1 UEZ      -0.104400
      4 C21        -41.7850    37.2150    24.3250 ca         1 UEZ       0.405900
      5 C28        -40.5910    41.7080    24.2910 ca         1 UEZ      -0.115300
      6 C02        -42.1810    25.2930    23.4330 c6         1 UEZ      -0.048000
      7 C03        -41.7130    24.2280    24.4710 c3         1 UEZ      -0.083100
      8 C04        -43.2710    26.2080    24.0680 c6         1 UEZ      -0.066900
      9 C05        -43.6480    27.4050    23.1570 c6         1 UEZ       0.170800
     10 C07        -42.7940    29.4230    21.9980 c3         1 UEZ       0.215100
     11 C08        -43.7180    30.3950    22.7270 ca         1 UEZ      -0.071300
     12 C09        -43.2560    31.1030    23.8500 ca         1 UEZ      -0.097000
     13 C11        -45.4310    32.2020    24.0910 ca         1 UEZ      -0.083000
     14 C12        -46.3090    33.1060    24.7460 ca         1 UEZ       0.353000
     15 C14        -46.1250    35.2970    26.0800 c3         1 UEZ       0.204800
     16 C16        -45.9850    36.2890    23.6650 c6         1 UEZ      -0.063400
     17 C18        -43.6870    36.9290    22.7110 c6         1 UEZ       0.204800
     18 C19        -43.8490    35.8860    24.9630 c6         1 UEZ       0.180800
     19 C23        -39.7630    36.7150    25.2860 ca         1 UEZ       0.190900
     20 C25        -39.8850    38.6440    24.0780 ca         1 UEZ       0.402900
     21 C27        -39.8410    41.0230    23.1510 c3         1 UEZ       0.283100
     22 C29        -41.9960    41.8300    24.2530 ca         1 UEZ      -0.098000
     23 C30        -42.6840    42.4610    25.3040 ca         1 UEZ      -0.108500
     24 C31        -41.9740    42.9790    26.4000 ca         1 UEZ      -0.105000
     25 C32        -40.5740    42.8660    26.4430 ca         1 UEZ      -0.108500
     26 C33        -39.8850    42.2340    25.3930 ca         1 UEZ      -0.098000
     27 C34        -41.2270    38.3830    23.7940 ca         1 UEZ      -0.351000
     28 C36        -47.6210    33.2710    24.2710 ca         1 UEZ      -0.220000
     29 C37        -48.0710    32.5600    23.1490 ca         1 UEZ      -0.055000
     30 C38        -47.2070    31.6720    22.4940 ca         1 UEZ      -0.161000
     31 C39        -45.8920    31.4890    22.9590 ca         1 UEZ       0.004000
     32 C40        -45.0400    30.5940    22.2860 ca         1 UEZ      -0.109000
     33 C41        -41.4100    27.3890    22.1310 c6         1 UEZ       0.170800
     34 C42        -40.9780    26.1920    23.0180 c6         1 UEZ      -0.066900
     35 N06        -42.4520    28.2190    22.7940 n3         1 UEZ      -0.724600
     36 N13        -45.9020    33.8450    25.8630 nu         1 UEZ      -0.983200
     37 N20        -43.1400    36.8890    24.0980 nh         1 UEZ      -0.747300
     38 N22        -41.0510    36.3770    25.0830 nb         1 UEZ      -0.306000
     39 N24        -39.1390    37.8110    24.8140 nb         1 UEZ      -0.291000
     40 N26        -39.2270    39.7640    23.6050 nu         1 UEZ      -0.940100
     41 O35        -45.4170    37.5920    25.6290 oh         1 UEZ      -0.655000
     42 H1         -43.7010    32.5250    25.3900 ha         1 UEZ       0.101000
     43 H2         -45.3570    38.2890    23.0260 hc         1 UEZ       0.057200
     44 H3         -45.6010    37.1660    21.6990 hc         1 UEZ       0.057200
     45 H4         -43.5910    23.8680    22.5000 hc         1 UEZ       0.032367
     46 H5         -43.1090    25.1700    21.4130 hc         1 UEZ       0.032367
     47 H6         -41.9850    23.8580    21.7620 hc         1 UEZ       0.032367
     48 H7         -42.5440    23.5880    24.7920 hc         1 UEZ       0.032367
     49 H8         -40.9350    23.5770    24.0540 hc         1 UEZ       0.032367
     50 H9         -41.2980    24.7000    25.3690 hc         1 UEZ       0.032367
     51 H10        -42.9110    26.6010    25.0290 hc         1 UEZ       0.045950
     52 H11        -44.1730    25.6240    24.2970 hc         1 UEZ       0.045950
     53 H12        -44.3820    28.0220    23.6950 h1         1 UEZ       0.031200
     54 H13        -44.1490    27.0350    22.2510 h1         1 UEZ       0.031200
     55 H14        -41.8750    29.9670    21.7390 h1         1 UEZ       0.037200
     56 H15        -43.2600    29.1240    21.0490 h1         1 UEZ       0.037200
     57 H16        -42.2370    30.9520    24.2000 ha         1 UEZ       0.126000
     58 H17        -47.1980    35.5290    26.0310 h1         1 UEZ       0.052700
     59 H18        -45.7970    35.5460    27.0990 h1         1 UEZ       0.052700
     60 H19        -47.0400    36.5910    23.7160 hc         1 UEZ       0.056700
     61 H20        -45.9700    35.2840    23.2270 hc         1 UEZ       0.056700
     62 H21        -43.5250    35.9570    22.2220 h1         1 UEZ       0.055700
     63 H22        -43.1750    37.6840    22.0970 h1         1 UEZ       0.055700
     64 H23        -43.7490    34.8800    24.5320 h1         1 UEZ       0.071200
     65 H24        -43.4150    35.8540    25.9740 h1         1 UEZ       0.071200
     66 H25        -39.1680    36.0340    25.8920 h5         1 UEZ       0.037100
     67 H26        -40.5260    40.8320    22.3130 h1         1 UEZ       0.054200
     68 H27        -39.0630    41.7060    22.7820 h1         1 UEZ       0.054200
     69 H28        -42.5570    41.4340    23.4090 ha         1 UEZ       0.113000
     70 H29        -43.7680    42.5490    25.2680 ha         1 UEZ       0.114000
     71 H30        -42.5060    43.4680    27.2130 ha         1 UEZ       0.114000
     72 H31        -40.0220    43.2670    27.2910 ha         1 UEZ       0.114000
     73 H32        -38.8010    42.1500    25.4360 ha         1 UEZ       0.113000
     74 H33        -41.8200    39.0640    23.1990 ha         1 UEZ       0.133000
     75 H34        -48.3000    33.9510    24.7740 ha         1 UEZ       0.114000
     76 H35        -49.0890    32.6950    22.7890 ha         1 UEZ       0.108000
     77 H36        -47.5620    31.1240    21.6250 ha         1 UEZ       0.113000
     78 H37        -45.4050    30.0490    21.4180 ha         1 UEZ       0.110000
     79 H38        -40.5210    28.0010    21.9190 h1         1 UEZ       0.031200
     80 H39        -41.7760    27.0160    21.1630 h1         1 UEZ       0.031200
     81 H40        -40.2230    25.5970    22.4870 hc         1 UEZ       0.045950
     82 H41        -40.4820    26.5840    23.9160 hc         1 UEZ       0.045950
     83 H43        -45.1020    33.4440    26.3520 hn         1 UEZ       0.483000
     84 H44        -38.2480    39.8150    23.8830 hn         1 UEZ       0.507000
     85 H45        -44.6240    38.0220    25.2320 ho         1 UEZ       0.454000
     86 C01        -42.7490    24.5070    22.2070 c3         1 UEZ      -0.083100
@<TRIPOS>BOND
     1     1    12 ar  
     2     1    13 ar  
     3     1    42 1   
     4     2    15 1   
     5     2    16 1   
     6     2    18 1   
     7     2    41 1   
     8     3    16 1   
     9     3    17 1   
    10     3    43 1   
    11     3    44 1   
    12     4    27 ar  
    13     4    37 1   
    14     4    38 ar  
    15     5    21 1   
    16     5    22 ar  
    17     5    26 ar  
    18     6     7 1   
    19     6     8 1   
    20     6    34 1   
    21     6    86 1   
    22     7    48 1   
    23     7    49 1   
    24     7    50 1   
    25     8     9 1   
    26     8    51 1   
    27     8    52 1   
    28     9    35 1   
    29     9    53 1   
    30     9    54 1   
    31    10    11 1   
    32    10    35 1   
    33    10    55 1   
    34    10    56 1   
    35    11    12 ar  
    36    11    32 ar  
    37    12    57 1   
    38    13    14 ar  
    39    13    31 ar  
    40    14    28 ar  
    41    14    36 1   
    42    15    36 1   
    43    15    58 1   
    44    15    59 1   
    45    16    60 1   
    46    16    61 1   
    47    17    37 1   
    48    17    62 1   
    49    17    63 1   
    50    18    37 1   
    51    18    64 1   
    52    18    65 1   
    53    19    38 ar  
    54    19    39 ar  
    55    19    66 1   
    56    20    27 ar  
    57    20    39 ar  
    58    20    40 1   
    59    21    40 1   
    60    21    67 1   
    61    21    68 1   
    62    22    23 ar  
    63    22    69 1   
    64    23    24 ar  
    65    23    70 1   
    66    24    25 ar  
    67    24    71 1   
    68    25    26 ar  
    69    25    72 1   
    70    26    73 1   
    71    27    74 1   
    72    28    29 ar  
    73    28    75 1   
    74    29    30 ar  
    75    29    76 1   
    76    30    31 ar  
    77    30    77 1   
    78    31    32 ar  
    79    32    78 1   
    80    33    34 1   
    81    33    35 1   
    82    33    79 1   
    83    33    80 1   
    84    34    81 1   
    85    34    82 1   
    86    36    83 1   
    87    40    84 1   
    88    41    85 1   
    89    45    86 1   
    90    46    86 1   
    91    47    86 1   
@<TRIPOS>SUBSTRUCTURE
     1 UEZ         1 TEMP              0 ****  ****    0 ROOT
