@<TRIPOS>MOLECULE
UF0
   61    60     1     0     0
SMALL
No Charge or Current Charge


@<TRIPOS>ATOM
      1 C            8.1100    -0.2890     2.3430 c          1 UF0       0.688000
      2 N            7.0240    -2.5330     1.5460 n8         1 UF0      -0.963200
      3 O            7.7310    -0.2590     3.5060 o          1 UF0      -0.753000
      4 O1         -12.6190    -1.7210     1.1940 oh         1 UF0      -0.618000
      5 CA           7.2250    -1.0480     1.2830 c3         1 UF0       0.008500
      6 CB           5.8850    -0.2580     1.1330 c3         1 UF0       0.233600
      7 O1A          4.5530     1.2020    -1.3320 os         1 UF0      -0.574400
      8 C1B          3.2250     1.4530    -1.8290 c3         1 UF0       0.229600
      9 C1C          2.0800     1.1600    -0.7870 c3         1 UF0      -0.068000
     10 C1D          0.7770     1.8780    -1.3160 c3         1 UF0       0.094300
     11 C1E         -0.4410     1.8580    -0.3210 c          1 UF0       0.575100
     12 N1F         -1.4200     0.9230    -0.5870 ns         1 UF0      -0.516900
     13 O1G         -0.5670     2.6600     0.5960 o          1 UF0      -0.614100
     14 C1H         -2.6350     0.7460     0.2070 c3         1 UF0       0.118000
     15 C1I         -3.3680    -0.5490    -0.1740 c3         1 UF0      -0.176400
     16 C1J         -4.6280    -0.7170     0.6730 c          1 UF0       0.602100
     17 N1K         -5.8140    -0.5160     0.0030 ns         1 UF0      -0.515900
     18 O1L         -4.5890    -1.0370     1.8520 o          1 UF0      -0.598100
     19 C1M         -7.1460    -0.6240     0.6120 c3         1 UF0       0.083000
     20 C1N         -8.1700     0.3200    -0.0560 c3         1 UF0       0.088000
     21 N1O         -9.4930     0.2680     0.5810 ns         1 UF0      -0.516900
     22 C1P          1.8120    -0.3680    -0.6270 c3         1 UF0      -0.079600
     23 C1Q          2.4740     1.7500     0.6020 c3         1 UF0      -0.079600
     24 P1R          5.3140    -0.2180    -1.4620 p5         1 UF0       1.396800
     25 O1S          6.7540    -0.0180    -1.7990 o          1 UF0      -0.845500
     26 O1T          4.6520    -1.1090    -2.4620 o          1 UF0      -0.845500
     27 C1U        -10.3800    -0.7870     0.4750 c          1 UF0       0.597100
     28 C1V        -11.7080    -0.5960     1.2720 c3         1 UF0       0.078600
     29 O1W        -10.1230    -1.7790    -0.1980 o          1 UF0      -0.557100
     30 O1X          0.4210     1.3720    -2.6350 oh         1 UF0      -0.677000
     31 O1Y          5.1000    -0.7660     0.0400 os         1 UF0      -0.592400
     32 OXT          9.1920     0.1570     1.9870 o          1 UF0      -0.753000
     33 HN           7.9420    -2.9820     1.6480 hn         1 UF0       0.361500
     34 HNA          6.5970    -2.6450     2.4730 hn         1 UF0       0.361500
     35 HO1        -13.4130    -1.4940     1.7270 ho         1 UF0       0.441000
     36 HA           7.7680    -0.9710     0.3330 h1         1 UF0       0.043700
     37 HB           5.3130    -0.3340     2.0680 h1         1 UF0       0.024200
     38 HBA          6.1130     0.8050     0.9780 h1         1 UF0       0.024200
     39 H1B          3.1660     2.5130    -2.1090 h1         1 UF0       0.018700
     40 H1BA         3.0420     0.8850    -2.7500 h1         1 UF0       0.018700
     41 H1D          1.0140     2.9470    -1.4090 h1         1 UF0       0.092700
     42 HN1F        -1.2840     0.3480    -1.4100 hn         1 UF0       0.319500
     43 H1H         -2.3640     0.7170     1.2720 h1         1 UF0       0.059200
     44 H1HA        -3.2940     1.6100     0.0440 h1         1 UF0       0.059200
     45 H1I         -3.6280    -0.5070    -1.2380 hc         1 UF0       0.061700
     46 H1IA        -2.6990    -1.3970     0.0170 hc         1 UF0       0.061700
     47 HN1K        -5.7470    -0.2740    -0.9790 hn         1 UF0       0.312500
     48 H1M         -7.4870    -1.6640     0.5260 h1         1 UF0       0.057700
     49 H1MA        -7.0790    -0.3740     1.6800 h1         1 UF0       0.057700
     50 H1N         -7.7990     1.3530     0.0010 h1         1 UF0       0.057200
     51 H1NA        -8.2740     0.0570    -1.1170 h1         1 UF0       0.057200
     52 HN1O        -9.7850     1.0540     1.1520 hn         1 UF0       0.310500
     53 H1P          2.6330    -0.8710    -0.1120 hc         1 UF0       0.039367
     54 H1PA         0.9140    -0.5530    -0.0260 hc         1 UF0       0.039367
     55 H1PB         1.6780    -0.8600    -1.5980 hc         1 UF0       0.039367
     56 H1Q          2.6060     2.8380     0.5430 hc         1 UF0       0.039367
     57 H1QA         1.7130     1.5370     1.3610 hc         1 UF0       0.039367
     58 H1QB         3.4110     1.3190     0.9700 hc         1 UF0       0.039367
     59 H1V        -12.1930     0.3120     0.8870 h1         1 UF0       0.029700
     60 H1VA       -11.4370    -0.4010     2.3180 h1         1 UF0       0.029700
     61 HO1X         0.7040     0.4330    -2.6840 ho         1 UF0       0.454000
@<TRIPOS>BOND
     1     1     3 1   
     2     1     5 1   
     3     1    32 1   
     4     2     5 1   
     5     2    33 1   
     6     2    34 1   
     7     4    28 1   
     8     4    35 1   
     9     5     6 1   
    10     5    36 1   
    11     6    31 1   
    12     6    37 1   
    13     6    38 1   
    14     7     8 1   
    15     7    24 1   
    16     8     9 1   
    17     8    39 1   
    18     8    40 1   
    19     9    10 1   
    20     9    22 1   
    21     9    23 1   
    22    10    11 1   
    23    10    30 1   
    24    10    41 1   
    25    11    12 1   
    26    11    13 2   
    27    12    14 1   
    28    12    42 1   
    29    14    15 1   
    30    14    43 1   
    31    14    44 1   
    32    15    16 1   
    33    15    45 1   
    34    15    46 1   
    35    16    17 1   
    36    16    18 2   
    37    17    19 1   
    38    17    47 1   
    39    19    20 1   
    40    19    48 1   
    41    19    49 1   
    42    20    21 1   
    43    20    50 1   
    44    20    51 1   
    45    21    27 1   
    46    21    52 1   
    47    22    53 1   
    48    22    54 1   
    49    22    55 1   
    50    23    56 1   
    51    23    57 1   
    52    23    58 1   
    53    24    25 1   
    54    24    26 1   
    55    24    31 1   
    56    27    28 1   
    57    27    29 2   
    58    28    59 1   
    59    28    60 1   
    60    30    61 1   
@<TRIPOS>SUBSTRUCTURE
     1 UF0         1 TEMP              0 ****  ****    0 ROOT
