@<TRIPOS>MOLECULE
UF0
   61    60     1     0     0
SMALL
bcc


@<TRIPOS>ATOM
      1 C            9.7430    -1.8530     0.1830 c          1 UF0       0.898600
      2 N            8.4290    -0.4200     1.8280 n8         1 UF0      -0.852800
      3 O           10.7700    -1.3520     0.6770 o          1 UF0      -0.858300
      4 O1         -12.7310    -2.3920     0.3120 oh         1 UF0      -0.555800
      5 CA           8.3720    -1.3330     0.6990 c3         1 UF0       0.008500
      6 CB           7.6370    -0.6850    -0.4650 c3         1 UF0       0.210400
      7 O1A          4.0870     0.4930    -0.1690 os         1 UF0      -0.551200
      8 C1B          2.9200     1.1090    -0.6700 c3         1 UF0       0.206400
      9 C1C          1.7890     1.0040     0.3680 c3         1 UF0      -0.068000
     10 C1D          0.5930     1.8180    -0.1990 c3         1 UF0       0.071100
     11 C1E         -0.6600     1.7380     0.6830 c          1 UF0       0.642100
     12 N1F         -1.7240     1.1440     0.1290 ns         1 UF0      -0.583900
     13 O1G         -0.6790     2.1980     1.8180 o          1 UF0      -0.614100
     14 C1H         -2.9900     1.0330     0.8200 c3         1 UF0       0.118000
     15 C1I         -3.9530     0.1980    -0.0070 c3         1 UF0      -0.176400
     16 C1J         -5.2910     0.0440     0.6850 c          1 UF0       0.669100
     17 N1K         -6.3560     0.0110    -0.1290 ns         1 UF0      -0.582900
     18 O1L         -5.3890    -0.0560     1.9010 o          1 UF0      -0.598100
     19 C1M         -7.7060    -0.1700     0.3560 c3         1 UF0       0.083000
     20 C1N         -8.6930     0.0050    -0.7930 c3         1 UF0       0.088000
     21 N1O        -10.0600    -0.1010    -0.3530 ns         1 UF0      -0.583900
     22 C1P          1.4000    -0.4610     0.5830 c3         1 UF0      -0.079600
     23 C1Q          2.2760     1.6020     1.6890 c3         1 UF0      -0.079600
     24 P1R          5.3440     0.3180    -1.2120 p5         1 UF0       1.396800
     25 O1S          5.8470     1.6650    -1.6370 o          1 UF0      -0.845500
     26 O1T          5.0080    -0.7030    -2.2580 o          1 UF0      -0.845500
     27 C1U        -10.7220    -1.2690    -0.2610 c          1 UF0       0.664100
     28 C1V        -12.1470    -1.1250     0.2480 c3         1 UF0       0.055400
     29 O1W        -10.2370    -2.3440    -0.5660 o          1 UF0      -0.557100
     30 O1X          0.2970     1.4870    -1.5380 oh         1 UF0      -0.614800
     31 O1Y          6.3200    -0.3310    -0.0720 os         1 UF0      -0.569200
     32 OXT          9.6930    -2.7330    -0.7010 o          1 UF0      -0.858300
     33 HN           8.8640    -0.9020     2.6060 hn         1 UF0       0.306300
     34 HNA          9.0850     0.3200     1.6010 hn         1 UF0       0.306300
     35 HO1        -13.6240    -2.2840     0.6510 ho         1 UF0       0.402000
     36 HA           7.7910    -2.2110     1.0080 h1         1 UF0       0.043700
     37 HB           8.1890     0.2070    -0.7910 h1         1 UF0       0.024200
     38 HBA          7.6130    -1.3830    -1.3050 h1         1 UF0       0.024200
     39 H1B          3.1090     2.1680    -0.8880 h1         1 UF0       0.018700
     40 H1BA         2.6220     0.6310    -1.6090 h1         1 UF0       0.018700
     41 H1D          0.8840     2.8740    -0.2090 h1         1 UF0       0.092700
     42 HN1F        -1.6890     0.9210    -0.8530 hn         1 UF0       0.319500
     43 H1H         -2.8320     0.5670     1.7930 h1         1 UF0       0.059200
     44 H1HA        -3.4140     2.0250     1.0040 h1         1 UF0       0.059200
     45 H1I         -4.0830     0.6390    -0.9980 hc         1 UF0       0.061700
     46 H1IA        -3.5370    -0.8020    -0.1620 hc         1 UF0       0.061700
     47 HN1K        -6.2090     0.0850    -1.1230 hn         1 UF0       0.312500
     48 H1M         -7.8290    -1.1620     0.7990 h1         1 UF0       0.057700
     49 H1MA        -7.9210     0.5640     1.1360 h1         1 UF0       0.057700
     50 H1N         -8.5610     0.9880    -1.2480 h1         1 UF0       0.057200
     51 H1NA        -8.5050    -0.7400    -1.5680 h1         1 UF0       0.057200
     52 HN1O       -10.5170     0.7430    -0.0470 hn         1 UF0       0.310500
     53 H1P          2.2630    -1.0390     0.9130 hc         1 UF0       0.039367
     54 H1PA         0.6310    -0.5650     1.3490 hc         1 UF0       0.039367
     55 H1PB         1.0280    -0.9420    -0.3260 hc         1 UF0       0.039367
     56 H1Q          2.5420     2.6550     1.5760 hc         1 UF0       0.039367
     57 H1QA         1.5240     1.5300     2.4690 hc         1 UF0       0.039367
     58 H1QB         3.1610     1.0690     2.0330 hc         1 UF0       0.039367
     59 H1V        -12.6840    -0.4450    -0.4280 h1         1 UF0       0.029700
     60 H1VA       -12.1130    -0.6250     1.2260 h1         1 UF0       0.029700
     61 HO1X         0.3880     0.5360    -1.6680 ho         1 UF0       0.415000
@<TRIPOS>BOND
     1     1     3 1   
     2     1     5 1   
     3     1    32 1   
     4     2     5 1   
     5     2    33 1   
     6     2    34 1   
     7     4    28 1   
     8     4    35 1   
     9     5     6 1   
    10     5    36 1   
    11     6    31 1   
    12     6    37 1   
    13     6    38 1   
    14     7     8 1   
    15     7    24 1   
    16     8     9 1   
    17     8    39 1   
    18     8    40 1   
    19     9    10 1   
    20     9    22 1   
    21     9    23 1   
    22    10    11 1   
    23    10    30 1   
    24    10    41 1   
    25    11    12 1   
    26    11    13 2   
    27    12    14 1   
    28    12    42 1   
    29    14    15 1   
    30    14    43 1   
    31    14    44 1   
    32    15    16 1   
    33    15    45 1   
    34    15    46 1   
    35    16    17 1   
    36    16    18 2   
    37    17    19 1   
    38    17    47 1   
    39    19    20 1   
    40    19    48 1   
    41    19    49 1   
    42    20    21 1   
    43    20    50 1   
    44    20    51 1   
    45    21    27 1   
    46    21    52 1   
    47    22    53 1   
    48    22    54 1   
    49    22    55 1   
    50    23    56 1   
    51    23    57 1   
    52    23    58 1   
    53    24    25 1   
    54    24    26 1   
    55    24    31 1   
    56    27    28 1   
    57    27    29 2   
    58    28    59 1   
    59    28    60 1   
    60    30    61 1   
@<TRIPOS>SUBSTRUCTURE
     1 UF0         1 TEMP              0 ****  ****    0 ROOT
