@<TRIPOS>MOLECULE
UF3
   23    25     1     0     0
SMALL
abcg2


@<TRIPOS>ATOM
      1 C1           4.8210    19.8700    24.6070 ca         1 UF3      -0.095000
      2 C10          8.3540    16.5120    29.7070 c          1 UF3       0.491000
      3 C11          7.6390    15.6740    28.6560 c          1 UF3       0.486000
      4 C2           5.5120    20.5250    25.5860 ca         1 UF3      -0.065000
      5 C3           6.2130    19.8170    26.5860 ca         1 UF3       0.266000
      6 C4           6.1940    18.4000    26.5640 ca         1 UF3      -0.069000
      7 C5           5.4810    17.7340    25.5450 ca         1 UF3      -0.096000
      8 C6           4.8150    18.4630    24.5990 ca         1 UF3       0.128000
      9 C7           6.9070    17.7290    27.5920 ca         1 UF3       0.073600
     10 C8           7.5680    18.4820    28.5330 ca         1 UF3      -0.045400
     11 C9           7.5220    19.8870    28.4510 ca         1 UF3       0.360900
     12 N1           6.8760    20.5310    27.5250 nb         1 UF3      -0.645000
     13 N2           8.2640    17.8520    29.5460 ns         1 UF3      -0.379100
     14 N3           6.9690    16.3590    27.6890 ns         1 UF3      -0.385100
     15 O1           7.6790    14.4680    28.7050 o          1 UF3      -0.472000
     16 O2           8.9520    15.9750    30.6100 o          1 UF3      -0.478000
     17 CL1          3.9400    17.6480    23.3520 cl         1 UF3      -0.185000
     18 H1           4.2860    20.4200    23.8450 ha         1 UF3       0.138000
     19 H2           5.5350    21.6070    25.6130 ha         1 UF3       0.141000
     20 H3           5.4450    16.6540    25.4920 ha         1 UF3       0.127000
     21 H4           8.0500    20.4730    29.1990 h4         1 UF3       0.029100
     22 H5           8.7360    18.4290    30.2330 hn         1 UF3       0.336500
     23 H6           6.4900    15.7850    27.0060 hn         1 UF3       0.337500
@<TRIPOS>BOND
     1     1     4 ar  
     2     1     8 ar  
     3     1    18 1   
     4     2     3 1   
     5     2    13 1   
     6     2    16 2   
     7     3    14 1   
     8     3    15 2   
     9     4     5 ar  
    10     4    19 1   
    11     5     6 ar  
    12     5    12 ar  
    13     6     7 ar  
    14     6     9 ar  
    15     7     8 ar  
    16     7    20 1   
    17     8    17 1   
    18     9    10 ar  
    19     9    14 1   
    20    10    11 ar  
    21    10    13 1   
    22    11    12 ar  
    23    11    21 1   
    24    13    22 1   
    25    14    23 1   
@<TRIPOS>SUBSTRUCTURE
     1 UF3         1 TEMP              0 ****  ****    0 ROOT
