@<TRIPOS>MOLECULE
UF3
   23    25     1     0     0
SMALL
No Charge or Current Charge


@<TRIPOS>ATOM
      1 C1           4.8040    19.8540    24.5680 ca         1 UF3      -0.095000
      2 C10          8.3970    16.4620    29.7480 c          1 UF3       0.491000
      3 C11          7.6210    15.6020    28.6390 c          1 UF3       0.486000
      4 C2           5.5040    20.5520    25.5670 ca         1 UF3      -0.065000
      5 C3           6.2050    19.8670    26.5780 ca         1 UF3       0.266000
      6 C4           6.1960    18.4440    26.5750 ca         1 UF3      -0.069000
      7 C5           5.4900    17.7460    25.5660 ca         1 UF3      -0.096000
      8 C6           4.7990    18.4530    24.5690 ca         1 UF3       0.128000
      9 C7           6.9010    17.7610    27.5920 ca         1 UF3       0.073600
     10 C8           7.5820    18.5130    28.5650 ca         1 UF3      -0.045400
     11 C9           7.5360    19.9180    28.4890 ca         1 UF3       0.360900
     12 N1           6.8640    20.5810    27.5200 nb         1 UF3      -0.645000
     13 N2           8.2940    17.8330    29.5900 ns         1 UF3      -0.379100
     14 N3           6.9570    16.3480    27.6810 ns         1 UF3      -0.385100
     15 O1           7.6040    14.3760    28.6230 o          1 UF3      -0.472000
     16 O2           9.0370    15.9650    30.6700 o          1 UF3      -0.478000
     17 Cl1          3.9240    17.5780    23.3200 cl         1 UF3      -0.185000
     18 H1           4.2680    20.3990    23.7950 ha         1 UF3       0.138000
     19 H2           5.5040    21.6380    25.5610 ha         1 UF3       0.141000
     20 H3           5.4660    16.6610    25.5390 ha         1 UF3       0.127000
     21 H4           8.0520    20.5320    29.2260 h4         1 UF3       0.029100
     22 H5           8.7780    18.3960    30.2820 hn         1 UF3       0.336500
     23 H6           6.4630    15.8160    26.9750 hn         1 UF3       0.337500
@<TRIPOS>BOND
     1     1     4 ar  
     2     1     8 ar  
     3     1    18 1   
     4     2     3 1   
     5     2    13 1   
     6     2    16 2   
     7     3    14 1   
     8     3    15 2   
     9     4     5 ar  
    10     4    19 1   
    11     5     6 ar  
    12     5    12 ar  
    13     6     7 ar  
    14     6     9 ar  
    15     7     8 ar  
    16     7    20 1   
    17     8    17 1   
    18     9    10 ar  
    19     9    14 1   
    20    10    11 ar  
    21    10    13 1   
    22    11    12 ar  
    23    11    21 1   
    24    13    22 1   
    25    14    23 1   
@<TRIPOS>SUBSTRUCTURE
     1 UF3         1 TEMP              0 ****  ****    0 ROOT
