@<TRIPOS>MOLECULE
UF4
   59    63     1     0     0
SMALL
No Charge or Current Charge


@<TRIPOS>ATOM
      1 CBD         10.7170    35.6980    -9.1060 c3         1 UF4      -0.079100
      2 CBC         10.1560    34.2860    -9.3880 c3         1 UF4       0.266300
      3 CBF          9.9450    34.0600   -10.9020 c3         1 UF4      -0.079100
      4 NBE          8.8800    34.1270    -8.6940 n8         1 UF4      -0.992200
      5 CBB         11.0500    33.2600    -8.8360 c1         1 UF4      -0.160100
      6 CAZ         11.8220    32.4310    -8.3970 cg         1 UF4      -0.113000
      7 CAW         12.7430    31.4590    -7.8830 ca         1 UF4      -0.050000
      8 CAV         12.8240    30.1760    -8.4580 ca         1 UF4       0.007000
      9 CAX         13.5880    31.7690    -6.7900 ca         1 UF4       0.372900
     10 NAY         14.4790    30.8880    -6.2640 nb         1 UF4      -0.664000
     11 CAU         14.5350    29.6670    -6.8360 ca         1 UF4       0.341500
     12 CAT         13.7480    29.2790    -7.9030 ca         1 UF4       0.027400
     13 NAS         13.9880    27.9740    -8.3090 nc         1 UF4      -0.561100
     14 CAR         14.9470    27.5880    -7.4460 cd         1 UF4       0.428700
     15 NAH         15.3170    28.5880    -6.5350 na         1 UF4      -0.284300
     16 CAG         16.2900    28.5220    -5.4360 c3         1 UF4       0.142900
     17 CAA         15.8650    27.5640    -4.3290 ca         1 UF4      -0.126300
     18 CAF         16.7120    26.5060    -3.9400 ca         1 UF4      -0.087000
     19 CAB         14.6190    27.7280    -3.6870 ca         1 UF4      -0.070000
     20 CAC         14.2240    26.8490    -2.6630 ca         1 UF4      -0.115000
     21 CAD         15.0720    25.8020    -2.2720 ca         1 UF4       0.077100
     22 OAI         14.6810    24.9600    -1.2500 os         1 UF4      -0.330100
     23 CAE         16.3160    25.6200    -2.9250 ca         1 UF4       0.047100
     24 OBG         17.1490    24.5750    -2.5760 os         1 UF4      -0.327100
     25 CBH         16.5800    23.5140    -1.7770 c6         1 UF4       0.122600
     26 CAJ         15.6890    24.1110    -0.6610 c6         1 UF4       0.197600
     27 CAK         14.9930    23.0500     0.1900 ca         1 UF4      -0.194300
     28 CAL         15.2980    22.9300     1.5580 ca         1 UF4       0.400900
     29 NAM         14.7240    22.0140     2.3690 nb         1 UF4      -0.758000
     30 CAP         14.0380    22.1800    -0.3640 ca         1 UF4      -0.018000
     31 CAO         13.4420    21.2310     0.4800 ca         1 UF4      -0.189000
     32 CAN         13.8090    21.1790     1.8320 ca         1 UF4       0.596300
     33 OAQ         13.1990    20.2320     2.6230 os         1 UF4      -0.457300
     34 CBA         13.5140    20.1130     4.0240 c3         1 UF4       0.158900
     35 H1          10.8550    35.8650    -8.0310 hc         1 UF4       0.044200
     36 H2          11.6890    35.8350    -9.5970 hc         1 UF4       0.044200
     37 H3          10.0370    36.4710    -9.4860 hc         1 UF4       0.044200
     38 H4           9.5330    33.0630   -11.1030 hc         1 UF4       0.044200
     39 H5           9.2510    34.8030   -11.3140 hc         1 UF4       0.044200
     40 H6          10.8940    34.1490   -11.4450 hc         1 UF4       0.044200
     41 H7           8.5760    33.1560    -8.8160 hn         1 UF4       0.401500
     42 H8           9.0620    34.1850    -7.6870 hn         1 UF4       0.401500
     43 H10         12.1980    29.8870    -9.2980 ha         1 UF4       0.140000
     44 H11         13.5510    32.7520    -6.3210 h4         1 UF4       0.027100
     45 H12         15.4140    26.6100    -7.4190 h5         1 UF4       0.064800
     46 H13         17.2570    28.2100    -5.8490 h1         1 UF4       0.069200
     47 H14         16.4260    29.5240    -5.0090 h1         1 UF4       0.069200
     48 H15         17.6730    26.3620    -4.4290 ha         1 UF4       0.125000
     49 H16         13.9580    28.5430    -3.9780 ha         1 UF4       0.130000
     50 H17         13.2670    26.9850    -2.1660 ha         1 UF4       0.133000
     51 H18         15.9760    22.8660    -2.4270 h1         1 UF4       0.071200
     52 H19         17.3900    22.9100    -1.3450 h1         1 UF4       0.071200
     53 H20         16.3240    24.7380    -0.0170 h1         1 UF4       0.067700
     54 H21         16.0320    23.5880     2.0230 h4         1 UF4       0.020100
     55 H22         13.7620    22.2390    -1.4160 ha         1 UF4       0.131000
     56 H23         12.7000    20.5380     0.0970 ha         1 UF4       0.141000
     57 H24         12.9280    19.3050     4.4800 h1         1 UF4       0.048700
     58 H25         14.5780    19.8820     4.1690 h1         1 UF4       0.048700
     59 H26         13.2820    21.0430     4.5590 h1         1 UF4       0.048700
@<TRIPOS>BOND
     1     1     2 1   
     2     1    35 1   
     3     1    36 1   
     4     1    37 1   
     5     2     3 1   
     6     2     4 1   
     7     2     5 1   
     8     3    38 1   
     9     3    39 1   
    10     3    40 1   
    11     4    41 1   
    12     4    42 1   
    13     5     6 3   
    14     6     7 1   
    15     7     8 ar  
    16     7     9 ar  
    17     8    12 ar  
    18     8    43 1   
    19     9    10 ar  
    20     9    44 1   
    21    10    11 ar  
    22    11    12 ar  
    23    11    15 1   
    24    12    13 1   
    25    13    14 2   
    26    14    15 1   
    27    14    45 1   
    28    15    16 1   
    29    16    17 1   
    30    16    46 1   
    31    16    47 1   
    32    17    18 ar  
    33    17    19 ar  
    34    18    23 ar  
    35    18    48 1   
    36    19    20 ar  
    37    19    49 1   
    38    20    21 ar  
    39    20    50 1   
    40    21    22 1   
    41    21    23 ar  
    42    22    26 1   
    43    23    24 1   
    44    24    25 1   
    45    25    26 1   
    46    25    51 1   
    47    25    52 1   
    48    26    27 1   
    49    26    53 1   
    50    27    28 ar  
    51    27    30 ar  
    52    28    29 ar  
    53    28    54 1   
    54    29    32 ar  
    55    30    31 ar  
    56    30    55 1   
    57    31    32 ar  
    58    31    56 1   
    59    32    33 1   
    60    33    34 1   
    61    34    57 1   
    62    34    58 1   
    63    34    59 1   
@<TRIPOS>SUBSTRUCTURE
     1 UF4         1 TEMP              0 ****  ****    0 ROOT
