@<TRIPOS>MOLECULE
UF4
   59    63     1     0     0
SMALL
abcg2


@<TRIPOS>ATOM
      1 CBD          9.6850    34.0060    -7.5430 c3         1 UF4      -0.079100
      2 CBC          9.6840    32.6530    -8.2580 c3         1 UF4       0.266300
      3 CBF          9.5270    32.8580    -9.7660 c3         1 UF4      -0.079100
      4 NBE          8.5460    31.8740    -7.7770 n8         1 UF4      -0.992200
      5 CBB         10.9700    31.9760    -7.9990 c1         1 UF4      -0.160100
      6 CAZ         12.0090    31.4040    -7.7780 cg         1 UF4      -0.113000
      7 CAW         13.2370    30.7370    -7.5030 ca         1 UF4      -0.050000
      8 CAV         13.7910    29.8340    -8.4120 ca         1 UF4       0.007000
      9 CAX         13.9050    30.9980    -6.2880 ca         1 UF4       0.372900
     10 NAY         15.0440    30.4340    -5.9250 nb         1 UF4      -0.664000
     11 CAU         15.5370    29.5800    -6.8000 ca         1 UF4       0.341500
     12 CAT         14.9850    29.2350    -8.0460 ca         1 UF4       0.027400
     13 NAS         15.7880    28.3200    -8.6770 nc         1 UF4      -0.561100
     14 CAR         16.7730    28.1250    -7.8460 cd         1 UF4       0.428700
     15 NAH         16.6890    28.8530    -6.7000 na         1 UF4      -0.284300
     16 CAG         17.5710    28.7900    -5.5480 c3         1 UF4       0.142900
     17 CAA         16.9700    27.9910    -4.4220 ca         1 UF4      -0.126300
     18 CAF         16.9270    26.6040    -4.4990 ca         1 UF4      -0.087000
     19 CAB         16.4160    28.6250    -3.3170 ca         1 UF4      -0.070000
     20 CAC         15.8430    27.8840    -2.2960 ca         1 UF4      -0.115000
     21 CAD         15.8020    26.4990    -2.3720 ca         1 UF4       0.077100
     22 OAI         15.2360    25.8130    -1.3510 os         1 UF4      -0.330100
     23 CAE         16.3460    25.8550    -3.4870 ca         1 UF4       0.047100
     24 OBG         16.3240    24.5060    -3.6010 os         1 UF4      -0.327100
     25 CBH         15.3770    23.8710    -2.7630 c6         1 UF4       0.122600
     26 CAJ         15.4710    24.4100    -1.3440 c6         1 UF4       0.197600
     27 CAK         14.4530    23.7770    -0.4480 ca         1 UF4      -0.194300
     28 CAL         14.8250    22.8700     0.5230 ca         1 UF4       0.400900
     29 NAM         13.9640    22.2510     1.3310 nb         1 UF4      -0.758000
     30 CAP         13.0870    24.0550    -0.5730 ca         1 UF4      -0.018000
     31 CAO         12.1860    23.4310     0.2550 ca         1 UF4      -0.189000
     32 CAN         12.6840    22.5240     1.2020 ca         1 UF4       0.596300
     33 OAQ         11.7960    21.9290     1.9950 os         1 UF4      -0.457300
     34 CBA         12.2710    21.0050     2.9640 c3         1 UF4       0.158900
     35 H1           9.7850    33.8790    -6.4640 hc         1 UF4       0.044200
     36 H2          10.5080    34.6300    -7.8900 hc         1 UF4       0.044200
     37 H3           8.7470    34.5260    -7.7430 hc         1 UF4       0.044200
     38 H4           9.5150    31.9030   -10.2940 hc         1 UF4       0.044200
     39 H5           8.5890    33.3740    -9.9700 hc         1 UF4       0.044200
     40 H6          10.3460    33.4550   -10.1660 hc         1 UF4       0.044200
     41 H7           8.5470    30.9610    -8.2160 hn         1 UF4       0.401500
     42 H8           8.6420    31.7070    -6.7820 hn         1 UF4       0.401500
     43 H10         13.3040    29.6160    -9.3540 ha         1 UF4       0.140000
     44 H11         13.4690    31.7050    -5.5920 h4         1 UF4       0.027100
     45 H12         17.6040    27.4550    -8.0160 h5         1 UF4       0.064800
     46 H13         18.5090    28.3490    -5.8870 h1         1 UF4       0.069200
     47 H14         17.7870    29.8080    -5.2260 h1         1 UF4       0.069200
     48 H15         17.3480    26.0840    -5.3530 ha         1 UF4       0.125000
     49 H16         16.4350    29.7040    -3.2450 ha         1 UF4       0.130000
     50 H17         15.4190    28.3760    -1.4290 ha         1 UF4       0.133000
     51 H18         14.3630    24.0150    -3.1540 h1         1 UF4       0.071200
     52 H19         15.6020    22.8060    -2.7730 h1         1 UF4       0.071200
     53 H20         16.4790    24.2100    -0.9580 h1         1 UF4       0.067700
     54 H21         15.8720    22.6240     0.6650 h4         1 UF4       0.020100
     55 H22         12.7320    24.7620    -1.3130 ha         1 UF4       0.131000
     56 H23         11.1250    23.6280     0.1860 ha         1 UF4       0.141000
     57 H24         11.3890    20.6400     3.4840 h1         1 UF4       0.048700
     58 H25         12.7910    20.1650     2.5030 h1         1 UF4       0.048700
     59 H26         12.9410    21.4790     3.6820 h1         1 UF4       0.048700
@<TRIPOS>BOND
     1     1     2 1   
     2     1    35 1   
     3     1    36 1   
     4     1    37 1   
     5     2     3 1   
     6     2     4 1   
     7     2     5 1   
     8     3    38 1   
     9     3    39 1   
    10     3    40 1   
    11     4    41 1   
    12     4    42 1   
    13     5     6 3   
    14     6     7 1   
    15     7     8 ar  
    16     7     9 ar  
    17     8    12 ar  
    18     8    43 1   
    19     9    10 ar  
    20     9    44 1   
    21    10    11 ar  
    22    11    12 ar  
    23    11    15 1   
    24    12    13 1   
    25    13    14 2   
    26    14    15 1   
    27    14    45 1   
    28    15    16 1   
    29    16    17 1   
    30    16    46 1   
    31    16    47 1   
    32    17    18 ar  
    33    17    19 ar  
    34    18    23 ar  
    35    18    48 1   
    36    19    20 ar  
    37    19    49 1   
    38    20    21 ar  
    39    20    50 1   
    40    21    22 1   
    41    21    23 ar  
    42    22    26 1   
    43    23    24 1   
    44    24    25 1   
    45    25    26 1   
    46    25    51 1   
    47    25    52 1   
    48    26    27 1   
    49    26    53 1   
    50    27    28 ar  
    51    27    30 ar  
    52    28    29 ar  
    53    28    54 1   
    54    29    32 ar  
    55    30    31 ar  
    56    30    55 1   
    57    31    32 ar  
    58    31    56 1   
    59    32    33 1   
    60    33    34 1   
    61    34    57 1   
    62    34    58 1   
    63    34    59 1   
@<TRIPOS>SUBSTRUCTURE
     1 UF4         1 TEMP              0 ****  ****    0 ROOT
