@<TRIPOS>MOLECULE
UF5
   24    26     1     0     0
SMALL
No Charge or Current Charge


@<TRIPOS>ATOM
      1 C1         -63.6660    25.3040   -18.9810 cc         1 UF5       0.033000
      2 C2         -63.2330    24.0720   -18.5630 cd         1 UF5      -0.178000
      3 C3         -63.4240    23.0650   -19.5480 cd         1 UF5       0.423000
      4 C4         -63.9940    23.5280   -20.6780 cc         1 UF5      -0.534500
      5 C5         -62.2420    21.2610   -18.2720 cx         1 UF5       0.136500
      6 C6         -63.7540    20.7950   -20.2920 c6         1 UF5       0.484000
      7 C7         -60.8390    21.7890   -18.0840 cx         1 UF5      -0.120400
      8 C8         -61.0540    20.3620   -18.5190 cx         1 UF5      -0.120400
      9 N1         -63.4890    21.1570   -21.6690 n7         1 UF5      -0.873300
     10 N2         -63.0640    21.7310   -19.3990 nh         1 UF5      -0.764400
     11 S1         -64.3130    25.2450   -20.6190 ss         1 UF5       0.349000
     12 S2         -64.2680    22.5520   -22.0750 sy         1 UF5       1.211600
     13 Cl1        -63.5950    26.7710   -18.0530 cl         1 UF5      -0.138000
     14 H1         -62.7970    23.8920   -17.5890 ha         1 UF5       0.151000
     15 H2         -62.8140    21.0790   -17.3600 h1         1 UF5       0.081700
     16 H7         -64.8380    20.8040   -20.0850 h2         1 UF5       0.060700
     17 H8         -63.3740    19.7770   -20.1130 h2         1 UF5       0.060700
     18 H4         -60.5020    21.9660   -17.0660 hc         1 UF5       0.084700
     19 H3         -60.4580    22.4910   -18.8210 hc         1 UF5       0.084700
     20 H6         -60.8610    19.5740   -17.7960 hc         1 UF5       0.084700
     21 H5         -60.8140    20.1080   -19.5480 hc         1 UF5       0.084700
     22 H9         -63.9780    20.4990   -22.2670 hn         1 UF5       0.489000
     23 O1         -65.6920    22.2290   -22.1470 o          1 UF5      -0.545000
     24 O2         -63.5410    23.1490   -23.1960 o          1 UF5      -0.545000
@<TRIPOS>BOND
     1     1     2 2   
     2     1    11 1   
     3     1    13 1   
     4     2     3 1   
     5     2    14 1   
     6     3     4 2   
     7     3    10 1   
     8     4    11 1   
     9     4    12 1   
    10     5     7 1   
    11     5     8 1   
    12     5    10 1   
    13     5    15 1   
    14     6     9 1   
    15     6    10 1   
    16     6    16 1   
    17     6    17 1   
    18     7     8 1   
    19     7    18 1   
    20     7    19 1   
    21     8    20 1   
    22     8    21 1   
    23     9    12 1   
    24     9    22 1   
    25    12    23 2   
    26    12    24 2   
@<TRIPOS>SUBSTRUCTURE
     1 UF5         1 TEMP              0 ****  ****    0 ROOT
