@<TRIPOS>MOLECULE
UF5
   24    26     1     0     0
SMALL
abcg2


@<TRIPOS>ATOM
      1 C1         -63.5740    25.2830   -19.0440 cc         1 UF5       0.033000
      2 C2         -63.0180    24.0970   -18.6730 cd         1 UF5      -0.178000
      3 C3         -63.2900    23.0630   -19.6250 cd         1 UF5       0.423000
      4 C4         -64.0580    23.5380   -20.6810 cc         1 UF5      -0.534500
      5 C5         -62.2940    21.2820   -18.2990 cx         1 UF5       0.136500
      6 C6         -63.5390    20.8090   -20.3750 c6         1 UF5       0.484000
      7 C7         -60.9140    21.7220   -17.9030 cx         1 UF5      -0.120400
      8 C8         -61.1490    20.3170   -18.3810 cx         1 UF5      -0.120400
      9 N1         -63.5460    21.3110   -21.7520 n7         1 UF5      -0.873300
     10 N2         -62.8430    21.7700   -19.5340 nh         1 UF5      -0.764400
     11 S1         -64.4440    25.2240   -20.5320 ss         1 UF5       0.349000
     12 S2         -64.5700    22.5790   -22.0290 sy         1 UF5       1.211600
     13 CL1        -63.4840    26.7580   -18.1690 cl         1 UF5      -0.138000
     14 H1         -62.4510    23.9610   -17.7670 ha         1 UF5       0.151000
     15 H2         -63.0140    21.1320   -17.4980 h1         1 UF5       0.081700
     16 H7         -64.5560    20.6300   -20.0010 h2         1 UF5       0.060700
     17 H8         -62.9910    19.8720   -20.3720 h2         1 UF5       0.060700
     18 H4         -60.7280    21.8940   -16.8520 hc         1 UF5       0.084700
     19 H3         -60.4040    22.3970   -18.5780 hc         1 UF5       0.084700
     20 H6         -61.1260    19.5100   -17.6620 hc         1 UF5       0.084700
     21 H5         -60.7900    20.0630   -19.3690 hc         1 UF5       0.084700
     22 H9         -63.6540    20.5890   -22.4590 hn         1 UF5       0.489000
     23 O1         -65.9690    22.2240   -21.8910 o          1 UF5      -0.545000
     24 O2         -64.2000    23.1750   -23.2940 o          1 UF5      -0.545000
@<TRIPOS>BOND
     1     1     2 2   
     2     1    11 1   
     3     1    13 1   
     4     2     3 1   
     5     2    14 1   
     6     3     4 2   
     7     3    10 1   
     8     4    11 1   
     9     4    12 1   
    10     5     7 1   
    11     5     8 1   
    12     5    10 1   
    13     5    15 1   
    14     6     9 1   
    15     6    10 1   
    16     6    16 1   
    17     6    17 1   
    18     7     8 1   
    19     7    18 1   
    20     7    19 1   
    21     8    20 1   
    22     8    21 1   
    23     9    12 1   
    24     9    22 1   
    25    12    23 2   
    26    12    24 2   
@<TRIPOS>SUBSTRUCTURE
     1 UF5         1 TEMP              0 ****  ****    0 ROOT
