@<TRIPOS>MOLECULE
UF6
   65    67     1     0     0
SMALL
No Charge or Current Charge


@<TRIPOS>ATOM
      1 N1         -36.1150   -31.5750   -68.6010 n3         1 UF6      -0.736600
      2 N3         -46.8280   -26.6850   -62.9350 no         1 UF6       0.670200
      3 C4         -37.2080   -31.1890   -70.9290 c3         1 UF6       0.159600
      4 C5         -37.4480   -31.4980   -67.9290 c3         1 UF6       0.173800
      5 C6         -37.4390   -30.9480   -66.4810 c3         1 UF6      -0.078400
      6 C7         -38.8580   -30.6640   -65.9400 c3         1 UF6      -0.077400
      7 C8         -38.8530   -30.1200   -64.4910 c3         1 UF6      -0.072400
      8 C10        -41.0820   -28.7960   -64.5980 c3         1 UF6       0.212800
      9 C13        -45.5850   -26.7340   -63.7780 ca         1 UF6      -0.115200
     10 C15        -44.2710   -25.9060   -65.6990 cp         1 UF6      -0.002000
     11 C17        -42.8690   -24.4640   -67.2630 ca         1 UF6      -0.151500
     12 C20        -45.2300   -24.6110   -67.6740 ca         1 UF6      -0.151500
     13 C21        -43.2480   -26.8230   -65.3560 ca         1 UF6      -0.143000
     14 C22        -35.1290   -32.3940   -67.8240 c6         1 UF6       0.130800
     15 C1         -33.7560   -32.8650   -69.9000 c6         1 UF6       0.174300
     16 C11        -43.3760   -27.6830   -64.2520 ca         1 UF6       0.324000
     17 C12        -44.5390   -27.6360   -63.4700 ca         1 UF6      -0.135000
     18 C14        -45.4370   -25.8770   -64.8940 ca         1 UF6      -0.095000
     19 C16        -44.1240   -24.9940   -66.8780 cp         1 UF6      -0.002000
     20 C18        -42.7730   -23.6120   -68.3760 ca         1 UF6       0.334400
     21 C19        -45.0480   -23.7550   -68.7730 ca         1 UF6       0.334400
     22 C2         -34.7590   -32.0020   -70.7170 c6         1 UF6       0.132300
     23 C23        -33.6960   -32.3750   -68.4250 c6         1 UF6       0.172300
     24 C3         -36.1890   -32.0240   -70.0530 c6         1 UF6       0.167500
     25 C9         -40.2610   -29.8940   -63.8900 c3         1 UF6      -0.087400
     26 N2         -42.3670   -28.5910   -63.9130 nu         1 UF6      -0.958200
     27 N4         -43.8410   -23.2570   -69.1260 nb         1 UF6      -0.656000
     28 O1         -32.4650   -32.8150   -70.5420 oh         1 UF6      -0.647000
     29 O2         -34.7650   -32.4870   -72.0850 oh         1 UF6      -0.729000
     30 O3         -38.5720   -31.6440   -70.8170 oh         1 UF6      -0.670000
     31 O4         -46.9080   -27.4490   -61.9640 o          1 UF6      -0.395000
     32 O5         -47.7180   -25.8830   -63.2490 o          1 UF6      -0.395000
     33 O6         -32.8100   -33.1960   -67.6280 oh         1 UF6      -0.704000
     34 H2         -37.1290   -30.1320   -70.6410 h1         1 UF6       0.029700
     35 H3         -36.9170   -31.2470   -71.9840 h1         1 UF6       0.029700
     36 H4         -38.1030   -30.8250   -68.4940 h1         1 UF6       0.043700
     37 H5         -37.9270   -32.4870   -67.9250 h1         1 UF6       0.043700
     38 H6         -36.9520   -31.6660   -65.8130 hc         1 UF6       0.044200
     39 H7         -36.8520   -30.0220   -66.4540 hc         1 UF6       0.044200
     40 H8         -39.3510   -29.9410   -66.6020 hc         1 UF6       0.039700
     41 H9         -39.4480   -31.5880   -65.9760 hc         1 UF6       0.039700
     42 H10        -38.3140   -30.8280   -63.8500 hc         1 UF6       0.043700
     43 H11        -38.2920   -29.1780   -64.4580 hc         1 UF6       0.043700
     44 H12        -40.5050   -27.8600   -64.5990 h1         1 UF6       0.041700
     45 H13        -41.2610   -29.0870   -65.6420 h1         1 UF6       0.041700
     46 H15        -46.2270   -24.9840   -67.4590 ha         1 UF6       0.126000
     47 H16        -42.3540   -26.8710   -65.9670 ha         1 UF6       0.125000
     48 H17        -35.4770   -33.4370   -67.7600 h1         1 UF6       0.043700
     49 H18        -35.0460   -32.0210   -66.7940 h1         1 UF6       0.043700
     50 H19        -34.1270   -33.9010   -69.8970 h1         1 UF6       0.059700
     51 H20        -44.6260   -28.3060   -62.6180 ha         1 UF6       0.151000
     52 H21        -46.2240   -25.1670   -65.1370 ha         1 UF6       0.155000
     53 H22        -41.8110   -23.1970   -68.6740 h4         1 UF6       0.022100
     54 H23        -45.8940   -23.4610   -69.3920 h4         1 UF6       0.022100
     55 H24        -34.4000   -30.9610   -70.6960 h1         1 UF6       0.052700
     56 H25        -33.3410   -31.3320   -68.4260 h1         1 UF6       0.054700
     57 H26        -36.5360   -33.0680   -70.0870 h1         1 UF6       0.063700
     58 H27        -40.8190   -30.8390   -63.9130 hc         1 UF6       0.049200
     59 H28        -40.1430   -29.6220   -62.8340 hc         1 UF6       0.049200
     60 H29        -42.5510   -29.1770   -63.0970 hn         1 UF6       0.479000
     61 H30        -32.6760   -32.8650   -71.5020 ho         1 UF6       0.451000
     62 H31        -34.9990   -31.7280   -72.6690 ho         1 UF6       0.507000
     63 H32        -39.1170   -31.0610   -71.3910 ho         1 UF6       0.445000
     64 H33        -32.5600   -32.6640   -66.8380 ho         1 UF6       0.501000
     65 H14        -41.9700   -24.6950   -66.7000 ha         1 UF6       0.126000
@<TRIPOS>BOND
     1     1     4 1   
     2     1    14 1   
     3     1    24 1   
     4     2     9 1   
     5     2    31 1   
     6     2    32 1   
     7     3    24 1   
     8     3    30 1   
     9     3    34 1   
    10     3    35 1   
    11     4     5 1   
    12     4    36 1   
    13     4    37 1   
    14     5     6 1   
    15     5    38 1   
    16     5    39 1   
    17     6     7 1   
    18     6    40 1   
    19     6    41 1   
    20     7    25 1   
    21     7    42 1   
    22     7    43 1   
    23     8    25 1   
    24     8    26 1   
    25     8    44 1   
    26     8    45 1   
    27     9    17 ar  
    28     9    18 ar  
    29    10    13 ar  
    30    10    18 ar  
    31    10    19 1   
    32    11    19 ar  
    33    11    20 ar  
    34    11    65 1   
    35    12    19 ar  
    36    12    21 ar  
    37    12    46 1   
    38    13    16 ar  
    39    13    47 1   
    40    14    23 1   
    41    14    48 1   
    42    14    49 1   
    43    15    22 1   
    44    15    23 1   
    45    15    28 1   
    46    15    50 1   
    47    16    17 ar  
    48    16    26 1   
    49    17    51 1   
    50    18    52 1   
    51    20    27 ar  
    52    20    53 1   
    53    21    27 ar  
    54    21    54 1   
    55    22    24 1   
    56    22    29 1   
    57    22    55 1   
    58    23    33 1   
    59    23    56 1   
    60    24    57 1   
    61    25    58 1   
    62    25    59 1   
    63    26    60 1   
    64    28    61 1   
    65    29    62 1   
    66    30    63 1   
    67    33    64 1   
@<TRIPOS>SUBSTRUCTURE
     1 UF6         1 TEMP              0 ****  ****    0 ROOT
