@<TRIPOS>MOLECULE
UF6
   65    67     1     0     0
SMALL
abcg2


@<TRIPOS>ATOM
      1 N1         -36.2010   -31.5600   -68.5650 n3         1 UF6      -0.736600
      2 N3         -46.1620   -25.9770   -62.5600 no         1 UF6       0.670200
      3 C4         -36.6060   -30.1130   -70.5550 c3         1 UF6       0.159600
      4 C5         -37.5340   -31.2760   -68.0200 c3         1 UF6       0.173800
      5 C6         -37.4910   -30.8280   -66.5630 c3         1 UF6      -0.078400
      6 C7         -38.8820   -30.5550   -65.9940 c3         1 UF6      -0.077400
      7 C8         -38.8310   -30.0560   -64.5510 c3         1 UF6      -0.072400
      8 C10        -41.0650   -28.8220   -64.5590 c3         1 UF6       0.212800
      9 C13        -45.1580   -26.3710   -63.5580 ca         1 UF6      -0.115200
     10 C15        -44.2580   -26.1750   -65.7550 cp         1 UF6      -0.002000
     11 C17        -43.1030   -25.3080   -67.8110 ca         1 UF6      -0.151500
     12 C20        -45.4830   -25.2900   -67.7580 ca         1 UF6      -0.151500
     13 C21        -43.2590   -27.0830   -65.3990 ca         1 UF6      -0.143000
     14 C22        -35.7190   -32.8560   -68.1030 c6         1 UF6       0.130800
     15 C1         -34.0050   -32.9110   -69.8820 c6         1 UF6       0.174300
     16 C11        -43.2070   -27.6550   -64.1170 ca         1 UF6       0.324000
     17 C12        -44.1840   -27.2760   -63.1810 ca         1 UF6      -0.135000
     18 C14        -45.2300   -25.8090   -64.8250 ca         1 UF6      -0.095000
     19 C16        -44.2810   -25.5900   -67.1150 cp         1 UF6      -0.002000
     20 C18        -43.1790   -24.7500   -69.0790 ca         1 UF6       0.334400
     21 C19        -45.4570   -24.7340   -69.0290 ca         1 UF6       0.334400
     22 C2         -34.6080   -31.6170   -70.4130 c6         1 UF6       0.132300
     23 C23        -34.2360   -33.0400   -68.3950 c6         1 UF6       0.172300
     24 C3         -36.0900   -31.4490   -70.0260 c6         1 UF6       0.167500
     25 C9         -40.1950   -29.8770   -63.8860 c3         1 UF6      -0.087400
     26 N2         -42.2630   -28.5840   -63.7700 nu         1 UF6      -0.958200
     27 N4         -44.3300   -24.4600   -69.6940 nb         1 UF6      -0.656000
     28 O1         -32.6090   -32.9590   -70.1620 oh         1 UF6      -0.647000
     29 O2         -34.4400   -31.6710   -71.8350 oh         1 UF6      -0.729000
     30 O3         -37.9930   -30.2250   -70.8960 oh         1 UF6      -0.670000
     31 O4         -46.1030   -26.4770   -61.4440 o          1 UF6      -0.395000
     32 O5         -47.0180   -25.1640   -62.8880 o          1 UF6      -0.395000
     33 O6         -33.7910   -34.3340   -67.9840 oh         1 UF6      -0.704000
     34 H2         -36.4500   -29.3400   -69.7950 h1         1 UF6       0.029700
     35 H3         -36.0430   -29.8300   -71.4460 h1         1 UF6       0.029700
     36 H4         -37.9930   -30.4870   -68.6090 h1         1 UF6       0.043700
     37 H5         -38.1880   -32.1590   -68.1220 h1         1 UF6       0.043700
     38 H6         -36.9970   -31.5800   -65.9420 hc         1 UF6       0.044200
     39 H7         -36.8830   -29.9210   -66.4980 hc         1 UF6       0.044200
     40 H8         -39.3910   -29.8220   -66.6270 hc         1 UF6       0.039700
     41 H9         -39.4820   -31.4710   -66.0380 hc         1 UF6       0.039700
     42 H10        -38.2480   -30.7640   -63.9540 hc         1 UF6       0.043700
     43 H11        -38.2870   -29.1060   -64.5180 hc         1 UF6       0.043700
     44 H12        -40.4900   -27.8930   -64.6880 h1         1 UF6       0.041700
     45 H13        -41.3560   -29.1570   -65.5560 h1         1 UF6       0.041700
     46 H15        -46.4340   -25.5000   -67.2860 ha         1 UF6       0.126000
     47 H16        -42.5210   -27.3660   -66.1350 ha         1 UF6       0.125000
     48 H17        -36.2770   -33.6850   -68.5730 h1         1 UF6       0.043700
     49 H18        -35.8720   -32.9320   -67.0280 h1         1 UF6       0.043700
     50 H19        -34.5120   -33.7490   -70.3800 h1         1 UF6       0.059700
     51 H20        -44.1750   -27.6860   -62.1820 ha         1 UF6       0.151000
     52 H21        -45.9990   -25.0930   -65.0620 ha         1 UF6       0.155000
     53 H22        -42.2690   -24.5210   -69.6230 h4         1 UF6       0.022100
     54 H23        -46.3870   -24.5030   -69.5360 h4         1 UF6       0.022100
     55 H24        -34.0400   -30.7760   -70.0040 h1         1 UF6       0.052700
     56 H25        -33.6630   -32.2630   -67.8760 h1         1 UF6       0.054700
     57 H26        -36.6570   -32.2480   -70.5340 h1         1 UF6       0.063700
     58 H27        -40.7330   -30.8300   -63.8770 hc         1 UF6       0.049200
     59 H28        -40.0440   -29.5880   -62.8410 hc         1 UF6       0.049200
     60 H29        -42.1640   -28.7500   -62.7800 hn         1 UF6       0.479000
     61 H30        -32.5120   -32.7490   -71.1010 ho         1 UF6       0.451000
     62 H31        -34.1940   -30.7990   -72.1610 ho         1 UF6       0.507000
     63 H32        -38.2950   -29.3630   -71.2060 ho         1 UF6       0.445000
     64 H33        -33.8540   -34.3810   -67.0210 ho         1 UF6       0.501000
     65 H14        -42.1350   -25.4980   -67.3690 ha         1 UF6       0.126000
@<TRIPOS>BOND
     1     1     4 1   
     2     1    14 1   
     3     1    24 1   
     4     2     9 1   
     5     2    31 1   
     6     2    32 1   
     7     3    24 1   
     8     3    30 1   
     9     3    34 1   
    10     3    35 1   
    11     4     5 1   
    12     4    36 1   
    13     4    37 1   
    14     5     6 1   
    15     5    38 1   
    16     5    39 1   
    17     6     7 1   
    18     6    40 1   
    19     6    41 1   
    20     7    25 1   
    21     7    42 1   
    22     7    43 1   
    23     8    25 1   
    24     8    26 1   
    25     8    44 1   
    26     8    45 1   
    27     9    17 ar  
    28     9    18 ar  
    29    10    13 ar  
    30    10    18 ar  
    31    10    19 1   
    32    11    19 ar  
    33    11    20 ar  
    34    11    65 1   
    35    12    19 ar  
    36    12    21 ar  
    37    12    46 1   
    38    13    16 ar  
    39    13    47 1   
    40    14    23 1   
    41    14    48 1   
    42    14    49 1   
    43    15    22 1   
    44    15    23 1   
    45    15    28 1   
    46    15    50 1   
    47    16    17 ar  
    48    16    26 1   
    49    17    51 1   
    50    18    52 1   
    51    20    27 ar  
    52    20    53 1   
    53    21    27 ar  
    54    21    54 1   
    55    22    24 1   
    56    22    29 1   
    57    22    55 1   
    58    23    33 1   
    59    23    56 1   
    60    24    57 1   
    61    25    58 1   
    62    25    59 1   
    63    26    60 1   
    64    28    61 1   
    65    29    62 1   
    66    30    63 1   
    67    33    64 1   
@<TRIPOS>SUBSTRUCTURE
     1 UF6         1 TEMP              0 ****  ****    0 ROOT
