@<TRIPOS>MOLECULE
UF7
   63    68     1     0     0
SMALL
No Charge or Current Charge


@<TRIPOS>ATOM
      1 C13         23.7300    -5.1240    23.7500 c5         1 UF7      -0.103400
      2 C18         19.9000    -4.5380    22.6940 ca         1 UF7      -0.074300
      3 C17         26.6670    -3.0490    22.7690 ca         1 UF7      -0.095000
      4 C16         27.2270    -2.9340    21.4810 ca         1 UF7      -0.114000
      5 C15         26.5540    -3.4750    20.3650 ca         1 UF7      -0.117000
      6 C19         20.2950    -4.1060    23.9780 ca         1 UF7      -0.098500
      7 C20         20.5980    -2.7540    24.2140 ca         1 UF7      -0.111000
      8 C21         20.5030    -1.8200    23.1700 ca         1 UF7      -0.107000
      9 C22         20.0990    -2.2380    21.8910 ca         1 UF7      -0.111000
     10 C23         19.7970    -3.5900    21.6550 ca         1 UF7      -0.098500
     11 C24         25.4950    -4.4300    25.3880 ca         1 UF7      -0.071300
     12 C11         25.4400    -3.7170    22.9180 ca         1 UF7      -0.087300
     13 C12         24.6700    -3.9350    24.1960 c5         1 UF7       0.027900
     14 C27         27.0020    -5.3170    27.6110 ca         1 UF7      -0.111000
     15 C1          18.8940    -7.3000    24.5710 ca         1 UF7      -0.252000
     16 C2          17.8620    -7.7200    25.4190 ca         1 UF7       0.653900
     17 N1          16.5700    -7.4780    25.2420 nb         1 UF7      -0.764000
     18 C3          16.2690    -6.7560    24.1460 ca         1 UF7       0.394500
     19 C4          17.1910    -6.2890    23.2470 ca         1 UF7      -0.080600
     20 C5          18.5630    -6.5480    23.4220 ca         1 UF7       0.087700
     21 C6          19.6050    -6.0160    22.4260 c3         1 UF7       0.026900
     22 N2          18.0590    -8.4390    26.5200 nv         1 UF7      -1.072900
     23 N3          15.0740    -6.3220    23.6610 na         1 UF7      -0.181100
     24 N4          15.2660    -5.6020    22.4880 nc         1 UF7      -0.173400
     25 N5          16.5680    -5.5780    22.2290 nd         1 UF7      -0.200400
     26 C7          20.9160    -6.8510    22.3740 c3         1 UF7      -0.110400
     27 N6          23.2160    -6.1880    21.5530 n7         1 UF7      -0.878400
     28 C9          23.4630    -4.8780    22.2120 c5         1 UF7       0.222800
     29 C10         24.7790    -4.2470    21.8260 ca         1 UF7      -0.086300
     30 C14         25.3190    -4.1320    20.5340 ca         1 UF7      -0.079000
     31 C25         25.2180    -3.9450    26.6830 ca         1 UF7      -0.104000
     32 C26         25.9660    -4.3850    27.7880 ca         1 UF7      -0.112000
     33 C28         27.2880    -5.8070    26.3270 ca         1 UF7      -0.112000
     34 C29         26.5390    -5.3660    25.2220 ca         1 UF7      -0.104000
     35 H1          22.8110    -5.1530    24.3420 hc         1 UF7       0.048700
     36 H2          24.2260    -6.0900    23.9010 hc         1 UF7       0.048700
     37 H3          27.1780    -2.6300    23.6330 ha         1 UF7       0.118000
     38 H4          28.1780    -2.4230    21.3470 ha         1 UF7       0.110000
     39 H5          26.9860    -3.3810    19.3720 ha         1 UF7       0.110000
     40 H6          20.3780    -4.8190    24.7940 ha         1 UF7       0.114000
     41 H7          20.9090    -2.4320    25.2050 ha         1 UF7       0.112500
     42 H8          20.7380    -0.7740    23.3520 ha         1 UF7       0.113000
     43 H9          20.0220    -1.5150    21.0830 ha         1 UF7       0.112500
     44 H10         19.4910    -3.9010    20.6580 ha         1 UF7       0.114000
     45 H11         24.0800    -3.0440    24.4430 hc         1 UF7       0.065700
     46 H12         27.5810    -5.6580    28.4670 ha         1 UF7       0.111000
     47 H13         19.9210    -7.5480    24.8140 ha         1 UF7       0.124000
     48 H14         19.1560    -6.1070    21.4290 hc         1 UF7       0.080700
     49 H15         17.2170    -8.8650    26.8860 hn         1 UF7       0.490500
     50 H16         18.9010    -9.0020    26.5630 hn         1 UF7       0.490500
     51 H17         14.1620    -6.4810    24.0680 hn         1 UF7       0.387000
     52 H18         20.6530    -7.9140    22.3030 hc         1 UF7       0.044200
     53 H19         21.4650    -6.7390    23.3140 hc         1 UF7       0.044200
     54 H20         21.3940    -5.6680    20.5980 h1         1 UF7       0.053700
     55 H21         21.8200    -7.3680    20.4820 h1         1 UF7       0.053700
     56 H22         23.6070    -6.9480    22.1190 hn         1 UF7       0.419000
     57 H24         22.6480    -4.1580    22.0420 h1         1 UF7       0.076700
     58 H25         24.7900    -4.5460    19.6780 ha         1 UF7       0.126000
     59 H26         24.4180    -3.2240    26.8340 ha         1 UF7       0.113500
     60 H27         25.7430    -4.0040    28.7820 ha         1 UF7       0.111500
     61 H28         28.0890    -6.5290    26.1870 ha         1 UF7       0.111500
     62 H29         26.7710    -5.7560    24.2340 ha         1 UF7       0.113500
     63 C8          21.8240    -6.5060    21.1640 c3         1 UF7       0.174800
@<TRIPOS>BOND
     1     1    13 1   
     2     1    28 1   
     3     1    35 1   
     4     1    36 1   
     5     2     6 ar  
     6     2    10 ar  
     7     2    21 1   
     8     3     4 ar  
     9     3    12 ar  
    10     3    37 1   
    11     4     5 ar  
    12     4    38 1   
    13     5    30 ar  
    14     5    39 1   
    15     6     7 ar  
    16     6    40 1   
    17     7     8 ar  
    18     7    41 1   
    19     8     9 ar  
    20     8    42 1   
    21     9    10 ar  
    22     9    43 1   
    23    10    44 1   
    24    11    13 1   
    25    11    31 ar  
    26    11    34 ar  
    27    12    13 1   
    28    12    29 ar  
    29    13    45 1   
    30    14    32 ar  
    31    14    33 ar  
    32    14    46 1   
    33    15    16 ar  
    34    15    20 ar  
    35    15    47 1   
    36    16    17 ar  
    37    16    22 1   
    38    17    18 ar  
    39    18    19 ar  
    40    18    23 1   
    41    19    20 ar  
    42    19    25 1   
    43    20    21 1   
    44    21    26 1   
    45    21    48 1   
    46    22    49 1   
    47    22    50 1   
    48    23    24 1   
    49    23    51 1   
    50    24    25 2   
    51    26    52 1   
    52    26    53 1   
    53    26    63 1   
    54    27    28 1   
    55    27    56 1   
    56    27    63 1   
    57    28    29 1   
    58    28    57 1   
    59    29    30 ar  
    60    30    58 1   
    61    31    32 ar  
    62    31    59 1   
    63    32    60 1   
    64    33    34 ar  
    65    33    61 1   
    66    34    62 1   
    67    54    63 1   
    68    55    63 1   
@<TRIPOS>SUBSTRUCTURE
     1 UF7         1 TEMP              0 ****  ****    0 ROOT
