@<TRIPOS>MOLECULE
UF7
   63    68     1     0     0
SMALL
bcc


@<TRIPOS>ATOM
      1 C13         23.7080    -5.3210    23.6330 c5         1 UF7      -0.103400
      2 C18         19.9390    -4.5650    22.7080 ca         1 UF7      -0.074300
      3 C17         26.6040    -3.1640    22.7830 ca         1 UF7      -0.113000
      4 C16         27.1810    -3.0120    21.5250 ca         1 UF7      -0.132000
      5 C15         26.5630    -3.5410    20.3960 ca         1 UF7      -0.135000
      6 C19         20.4300    -4.2110    23.9630 ca         1 UF7      -0.116500
      7 C20         20.8270    -2.9080    24.2280 ca         1 UF7      -0.129000
      8 C21         20.7290    -1.9340    23.2420 ca         1 UF7      -0.125000
      9 C22         20.2180    -2.2710    21.9960 ca         1 UF7      -0.129000
     10 C23         19.8230    -3.5770    21.7360 ca         1 UF7      -0.116500
     11 C24         25.3330    -4.4150    25.3860 ca         1 UF7      -0.071300
     12 C11         25.4070    -3.8520    22.8890 ca         1 UF7      -0.087300
     13 C12         24.5750    -4.1450    24.1160 c5         1 UF7       0.027900
     14 C27         26.6980    -4.9560    27.7700 ca         1 UF7      -0.129000
     15 C1          18.9220    -7.4510    24.3690 ca         1 UF7      -0.335300
     16 C2          17.9350    -7.8890    25.3140 ca         1 UF7       0.719200
     17 N1          16.6770    -7.4690    25.3120 nb         1 UF7      -0.764000
     18 C3          16.4130    -6.5910    24.3510 ca         1 UF7       0.459800
     19 C4          17.2850    -6.0900    23.3910 ca         1 UF7      -0.145900
     20 C5          18.6210    -6.5410    23.3920 ca         1 UF7       0.087700
     21 C6          19.6030    -6.0070    22.3840 c3         1 UF7       0.026900
     22 N2          18.3040    -8.7540    26.2810 nv         1 UF7      -0.962500
     23 N3          15.2490    -5.9760    24.0580 na         1 UF7      -0.130800
     24 N4          15.3920    -5.1680    23.0050 nc         1 UF7      -0.173400
     25 N5          16.6030    -5.2250    22.5960 nd         1 UF7      -0.200400
     26 C7          20.8750    -6.8530    22.2400 c3         1 UF7      -0.110400
     27 N6          23.1550    -6.1700    21.2780 n7         1 UF7      -0.823200
     28 C9          23.4860    -5.0510    22.1300 c5         1 UF7       0.222800
     29 C10         24.7870    -4.3740    21.7600 ca         1 UF7      -0.086300
     30 C14         25.3570    -4.2260    20.5080 ca         1 UF7      -0.097000
     31 C25         24.9670    -3.7900    26.5740 ca         1 UF7      -0.122000
     32 C26         25.6420    -4.0570    27.7600 ca         1 UF7      -0.130000
     33 C28         27.0730    -5.5860    26.5880 ca         1 UF7      -0.130000
     34 C29         26.3960    -5.3170    25.4080 ca         1 UF7      -0.122000
     35 H1          22.7880    -5.4090    24.2060 hc         1 UF7       0.048700
     36 H2          24.2650    -6.2570    23.7450 hc         1 UF7       0.048700
     37 H3          27.0950    -2.7610    23.6610 ha         1 UF7       0.136000
     38 H4          28.1210    -2.4840    21.4250 ha         1 UF7       0.128000
     39 H5          27.0280    -3.4210    19.4250 ha         1 UF7       0.128000
     40 H6          20.5120    -4.9570    24.7450 ha         1 UF7       0.132000
     41 H7          21.2130    -2.6510    25.2060 ha         1 UF7       0.130500
     42 H8          21.0420    -0.9180    23.4480 ha         1 UF7       0.131000
     43 H9          20.1280    -1.5170    21.2240 ha         1 UF7       0.130500
     44 H10         19.4250    -3.8320    20.7610 ha         1 UF7       0.132000
     45 H11         23.9100    -3.2890    24.2880 hc         1 UF7       0.065700
     46 H12         27.2290    -5.1640    28.6910 ha         1 UF7       0.129000
     47 H13         19.9190    -7.8630    24.4530 ha         1 UF7       0.142000
     48 H14         19.0870    -6.0120    21.4180 hc         1 UF7       0.080700
     49 H15         17.5890    -9.1850    26.8410 hn         1 UF7       0.435300
     50 H16         19.1770    -9.2450    26.2110 hn         1 UF7       0.435300
     51 H17         14.3520    -6.0630    24.5120 hn         1 UF7       0.336700
     52 H18         20.5870    -7.9010    22.1250 hc         1 UF7       0.044200
     53 H19         21.4610    -6.8010    23.1600 hc         1 UF7       0.044200
     54 H20         21.3350    -5.5290    20.5730 h1         1 UF7       0.053700
     55 H21         21.6910    -7.2020    20.2730 h1         1 UF7       0.053700
     56 H22         23.6370    -7.0090    21.5770 hn         1 UF7       0.363800
     57 H24         22.6810    -4.3110    22.0280 h1         1 UF7       0.076700
     58 H25         24.8750    -4.6490    19.6340 ha         1 UF7       0.144000
     59 H26         24.1450    -3.0830    26.5730 ha         1 UF7       0.131500
     60 H27         25.3430    -3.5580    28.6730 ha         1 UF7       0.129500
     61 H28         27.8980    -6.2870    26.5870 ha         1 UF7       0.129500
     62 H29         26.7020    -5.8110    24.4930 ha         1 UF7       0.131500
     63 C8          21.7500    -6.4270    21.0390 c3         1 UF7       0.174800
@<TRIPOS>BOND
     1     1    13 1   
     2     1    28 1   
     3     1    35 1   
     4     1    36 1   
     5     2     6 ar  
     6     2    10 ar  
     7     2    21 1   
     8     3     4 ar  
     9     3    12 ar  
    10     3    37 1   
    11     4     5 ar  
    12     4    38 1   
    13     5    30 ar  
    14     5    39 1   
    15     6     7 ar  
    16     6    40 1   
    17     7     8 ar  
    18     7    41 1   
    19     8     9 ar  
    20     8    42 1   
    21     9    10 ar  
    22     9    43 1   
    23    10    44 1   
    24    11    13 1   
    25    11    31 ar  
    26    11    34 ar  
    27    12    13 1   
    28    12    29 ar  
    29    13    45 1   
    30    14    32 ar  
    31    14    33 ar  
    32    14    46 1   
    33    15    16 ar  
    34    15    20 ar  
    35    15    47 1   
    36    16    17 ar  
    37    16    22 1   
    38    17    18 ar  
    39    18    19 ar  
    40    18    23 1   
    41    19    20 ar  
    42    19    25 1   
    43    20    21 1   
    44    21    26 1   
    45    21    48 1   
    46    22    49 1   
    47    22    50 1   
    48    23    24 1   
    49    23    51 1   
    50    24    25 2   
    51    26    52 1   
    52    26    53 1   
    53    26    63 1   
    54    27    28 1   
    55    27    56 1   
    56    27    63 1   
    57    28    29 1   
    58    28    57 1   
    59    29    30 ar  
    60    30    58 1   
    61    31    32 ar  
    62    31    59 1   
    63    32    60 1   
    64    33    34 ar  
    65    33    61 1   
    66    34    62 1   
    67    54    63 1   
    68    55    63 1   
@<TRIPOS>SUBSTRUCTURE
     1 UF7         1 TEMP              0 ****  ****    0 ROOT
