@<TRIPOS>MOLECULE
UF8
   44    48     1     0     0
SMALL
abcg2


@<TRIPOS>ATOM
      1 C2         111.0600   154.2560   211.4370 c          1 UF8       0.590500
      2 C3         110.8700   153.2120   212.4410 cc         1 UF8      -0.330200
      3 O5         110.9990   151.5330   210.7870 os         1 UF8      -0.238200
      4 C7         111.2510   153.7840   210.1000 cc         1 UF8      -0.483200
      5 C9         111.5840   152.6720   207.4150 c6         1 UF8       0.182800
      6 C10        112.3970   151.9490   206.3540 c6         1 UF8       0.141600
      7 C12        111.9230   149.8580   207.2710 c6         1 UF8       0.141600
      8 C13        111.0750   150.4610   208.3740 c6         1 UF8       0.182800
      9 C14        110.6120   150.7630   212.9720 ca         1 UF8      -0.031800
     10 C15        109.4440   150.7190   213.7330 ca         1 UF8      -0.072000
     11 C16        109.1500   149.6040   214.5090 ca         1 UF8      -0.102000
     12 C20        112.9010   147.0880   212.2310 ca         1 UF8      -0.082000
     13 C21        113.0410   145.8380   211.6300 ca         1 UF8      -0.074000
     14 C22        113.5650   145.7390   210.3460 ca         1 UF8      -0.099000
     15 C24        113.7490   148.1380   210.2260 ca         1 UF8      -0.079000
     16 C27        111.5250   149.6980   213.0450 ca         1 UF8      -0.055000
     17 C17        110.0090   148.5150   214.5150 ca         1 UF8      -0.062000
     18 C18        111.2040   148.5660   213.7990 ca         1 UF8      -0.084000
     19 C23        113.9190   146.8880   209.6440 ca         1 UF8      -0.103000
     20 C25        113.2560   148.2400   211.5250 ca         1 UF8      -0.086000
     21 C4         110.8470   151.9200   212.0870 cd         1 UF8       0.167900
     22 C6         111.2460   152.4410   209.8160 cd         1 UF8       0.384100
     23 N8         111.4830   151.8510   208.6210 nh         1 UF8      -0.672400
     24 O1         111.0530   155.4640   211.7470 o          1 UF8      -0.578100
     25 O11        111.8820   150.6490   206.0880 os         1 UF8      -0.448000
     26 S19        112.3200   147.1930   213.9020 ss         1 UF8       0.037000
     27 S26        113.1210   149.8340   212.2830 ss         1 UF8       0.051000
     28 H1         110.7520   153.4880   213.4790 ha         1 UF8       0.216000
     29 H2         111.4030   154.5100   209.3190 ha         1 UF8       0.210000
     30 H4         110.5800   152.8980   207.0350 h1         1 UF8       0.064450
     31 H5         113.4420   151.8700   206.6790 h1         1 UF8       0.058700
     32 H6         112.3570   152.5080   205.4200 h1         1 UF8       0.058700
     33 H7         111.5390   148.8720   207.0120 h1         1 UF8       0.058700
     34 H8         112.9620   149.7580   207.6080 h1         1 UF8       0.058700
     35 H9         110.0180   150.4380   208.0840 h1         1 UF8       0.064450
     36 H10        111.1980   149.8760   209.2800 h1         1 UF8       0.064450
     37 H11        108.7530   151.5490   213.6840 ha         1 UF8       0.129000
     38 H12        108.2340   149.5720   215.0830 ha         1 UF8       0.126000
     39 H13        112.7440   144.9480   212.1710 ha         1 UF8       0.128000
     40 H14        113.6830   144.7640   209.8910 ha         1 UF8       0.121000
     41 H15        114.0010   149.0370   209.6800 ha         1 UF8       0.127000
     42 H16        109.7640   147.6250   215.0810 ha         1 UF8       0.131000
     43 H17        114.3130   146.8140   208.6390 ha         1 UF8       0.119000
     44 H3         112.0840   153.6090   207.6480 h1         1 UF8       0.064450
@<TRIPOS>BOND
     1     1     2 1   
     2     1     4 1   
     3     1    24 2   
     4     2    21 2   
     5     2    28 1   
     6     3    21 1   
     7     3    22 1   
     8     4    22 2   
     9     4    29 1   
    10     5     6 1   
    11     5    23 1   
    12     5    30 1   
    13     5    44 1   
    14     6    25 1   
    15     6    31 1   
    16     6    32 1   
    17     7     8 1   
    18     7    25 1   
    19     7    33 1   
    20     7    34 1   
    21     8    23 1   
    22     8    35 1   
    23     8    36 1   
    24     9    10 ar  
    25     9    16 ar  
    26     9    21 1   
    27    10    11 ar  
    28    10    37 1   
    29    11    17 ar  
    30    11    38 1   
    31    12    13 ar  
    32    12    20 ar  
    33    12    26 1   
    34    13    14 ar  
    35    13    39 1   
    36    14    19 ar  
    37    14    40 1   
    38    15    19 ar  
    39    15    20 ar  
    40    15    41 1   
    41    16    18 ar  
    42    16    27 1   
    43    17    18 ar  
    44    17    42 1   
    45    18    26 1   
    46    19    43 1   
    47    20    27 1   
    48    22    23 1   
@<TRIPOS>SUBSTRUCTURE
     1 UF8         1 TEMP              0 ****  ****    0 ROOT
