@<TRIPOS>MOLECULE
UF8
   44    48     1     0     0
SMALL
No Charge or Current Charge


@<TRIPOS>ATOM
      1 C2         110.8530   154.3800   211.4470 c          1 UF8       0.590500
      2 C3         110.6420   153.3270   212.4180 cc         1 UF8      -0.330200
      3 O5         111.9000   151.8510   211.0630 os         1 UF8      -0.238200
      4 C7         111.0430   153.8450   210.1200 cc         1 UF8      -0.483200
      5 C9         111.4350   152.6680   207.4300 c6         1 UF8       0.182800
      6 C10        112.1790   152.0000   206.2360 c6         1 UF8       0.141600
      7 C12        112.3010   149.8860   207.3730 c6         1 UF8       0.141600
      8 C13        111.5480   150.4460   208.6120 c6         1 UF8       0.182800
      9 C14        110.8230   150.8510   212.9910 ca         1 UF8      -0.031800
     10 C15        109.6070   150.8470   213.7130 ca         1 UF8      -0.072000
     11 C16        109.1930   149.7190   214.4350 ca         1 UF8      -0.102000
     12 C20        112.7750   146.9320   212.1800 ca         1 UF8      -0.082000
     13 C21        112.7680   145.6840   211.5310 ca         1 UF8      -0.074000
     14 C22        113.2520   145.5700   210.2160 ca         1 UF8      -0.099000
     15 C24        113.7740   147.9460   210.2040 ca         1 UF8      -0.079000
     16 C27        111.6460   149.6830   213.0400 ca         1 UF8      -0.055000
     17 C17        109.9890   148.5690   214.4540 ca         1 UF8      -0.062000
     18 C18        111.2100   148.5470   213.7630 ca         1 UF8      -0.084000
     19 C23        113.7580   146.7010   209.5530 ca         1 UF8      -0.103000
     20 C25        113.2710   148.0660   211.5120 ca         1 UF8      -0.086000
     21 C4         111.1590   152.0680   212.2040 cd         1 UF8       0.167900
     22 C6         111.4620   152.5500   209.9640 cd         1 UF8       0.384100
     23 N8         111.6580   151.9380   208.7230 nh         1 UF8      -0.672400
     24 O1         110.6580   155.5650   211.6670 o          1 UF8      -0.578100
     25 O11        111.8960   150.5830   206.1740 os         1 UF8      -0.448000
     26 S19        112.1940   147.0520   213.8670 ss         1 UF8       0.037000
     27 S26        113.2990   149.6570   212.3230 ss         1 UF8       0.051000
     28 H1         110.1470   153.6150   213.3350 ha         1 UF8       0.216000
     29 H2         110.8730   154.5290   209.3030 ha         1 UF8       0.210000
     30 H4         110.3590   152.7080   207.2040 h1         1 UF8       0.064450
     31 H5         113.2630   152.1460   206.3470 h1         1 UF8       0.058700
     32 H6         111.8690   152.4720   205.2930 h1         1 UF8       0.058700
     33 H7         112.0860   148.8140   207.2600 h1         1 UF8       0.058700
     34 H8         113.3860   150.0020   207.5110 h1         1 UF8       0.058700
     35 H9         110.4890   150.1590   208.5380 h1         1 UF8       0.064450
     36 H10        111.9440   149.9520   209.5090 h1         1 UF8       0.064450
     37 H11        108.9490   151.7120   213.6940 ha         1 UF8       0.129000
     38 H12        108.2470   149.7340   214.9730 ha         1 UF8       0.126000
     39 H13        112.3880   144.8040   212.0460 ha         1 UF8       0.128000
     40 H14        113.2430   144.6040   209.7150 ha         1 UF8       0.121000
     41 H15        114.1780   148.8180   209.6940 ha         1 UF8       0.127000
     42 H16        109.6610   147.6950   215.0130 ha         1 UF8       0.131000
     43 H17        114.1430   146.6110   208.5390 ha         1 UF8       0.119000
     44 H3         111.7920   153.7040   207.5010 h1         1 UF8       0.064450
@<TRIPOS>BOND
     1     1     2 1   
     2     1     4 1   
     3     1    24 2   
     4     2    21 2   
     5     2    28 1   
     6     3    21 1   
     7     3    22 1   
     8     4    22 2   
     9     4    29 1   
    10     5     6 1   
    11     5    23 1   
    12     5    30 1   
    13     5    44 1   
    14     6    25 1   
    15     6    31 1   
    16     6    32 1   
    17     7     8 1   
    18     7    25 1   
    19     7    33 1   
    20     7    34 1   
    21     8    23 1   
    22     8    35 1   
    23     8    36 1   
    24     9    10 ar  
    25     9    16 ar  
    26     9    21 1   
    27    10    11 ar  
    28    10    37 1   
    29    11    17 ar  
    30    11    38 1   
    31    12    13 ar  
    32    12    20 ar  
    33    12    26 1   
    34    13    14 ar  
    35    13    39 1   
    36    14    19 ar  
    37    14    40 1   
    38    15    19 ar  
    39    15    20 ar  
    40    15    41 1   
    41    16    18 ar  
    42    16    27 1   
    43    17    18 ar  
    44    17    42 1   
    45    18    26 1   
    46    19    43 1   
    47    20    27 1   
    48    22    23 1   
@<TRIPOS>SUBSTRUCTURE
     1 UF8         1 TEMP              0 ****  ****    0 ROOT
