@<TRIPOS>MOLECULE
UF9
   58    61     1     0     0
SMALL
abcg2


@<TRIPOS>ATOM
      1 C12         23.1940    21.9610    44.4980 ca         1 UF9       0.154500
      2 C14         22.8120    21.5210    46.6960 cc         1 UF9       0.005100
      3 N           18.9540    12.5110    43.5510 n8         1 UF9      -1.014200
      4 CA          20.2020    12.1150    42.9140 c3         1 UF9       0.021500
      5 C           20.3120    10.5690    42.8030 c          1 UF9       0.719000
      6 OXT         21.4300    10.1160    42.4930 o          1 UF9      -0.725500
      7 CB          21.3980    12.6970    43.6680 c3         1 UF9      -0.043400
      8 O           19.2690     9.9130    43.0020 o          1 UF9      -0.725500
      9 C10         23.4890    23.9000    43.4890 ca         1 UF9       0.176900
     10 C13         23.0350    22.5680    45.7410 ca         1 UF9      -0.240800
     11 C15         22.5880    21.6580    48.0810 cg         1 UF9      -0.093300
     12 C16         22.4040    21.8090    49.2660 ch         1 UF9      -0.143000
     13 C17         22.1800    21.9880    50.6580 ca         1 UF9       0.041000
     14 C18         21.7700    20.9150    51.4560 ca         1 UF9      -0.093500
     15 C19         21.5560    21.0980    52.8130 ca         1 UF9      -0.110500
     16 C20         21.7460    22.3470    53.3910 ca         1 UF9      -0.109000
     17 C21         22.1520    23.4180    52.6030 ca         1 UF9      -0.110500
     18 C22         22.3690    23.2440    51.2460 ca         1 UF9      -0.093500
     19 C23         22.8500    20.3460    45.9880 cd         1 UF9      -0.116100
     20 C25         23.2260    19.6260    43.6210 c5         1 UF9       0.273300
     21 C26         24.5080    18.7900    43.7350 c5         1 UF9       0.083300
     22 C28         24.0870    17.5100    43.0220 c5         1 UF9       0.155300
     23 C30         22.6410    17.3720    43.4850 c5         1 UF9       0.166300
     24 C32         22.4730    16.5760    44.7730 c3         1 UF9       0.027600
     25 C34         21.3560    14.2170    43.7250 c3         1 UF9       0.085600
     26 C8          23.1280    23.9740    45.7530 ca         1 UF9       0.438900
     27 N11         23.4240    22.5910    43.3460 nb         1 UF9      -0.225000
     28 N24         23.0770    20.6110    44.6650 na         1 UF9      -0.187400
     29 N7          22.9960    24.6980    46.8680 nv         1 UF9      -1.077900
     30 N9          23.3580    24.6150    44.6030 nb         1 UF9      -0.307000
     31 O27         25.6220    19.3660    43.1270 oh         1 UF9      -0.706000
     32 O29         24.0850    17.6750    41.6270 oh         1 UF9      -0.707000
     33 O31         22.1690    18.7100    43.6960 os         1 UF9      -0.453000
     34 S33         22.8460    14.8160    44.5800 ss         1 UF9      -0.461000
     35 H4          20.2640    12.4870    41.8770 h1         1 UF9       0.000700
     36 H6          21.4120    12.2990    44.6880 hc         1 UF9       0.060700
     37 H7          22.3180    12.3730    43.1810 hc         1 UF9       0.060700
     38 H8          23.6730    24.4720    42.5850 h5         1 UF9       0.042100
     39 H9          21.6220    19.9410    51.0080 ha         1 UF9       0.116500
     40 H10         21.2380    20.2610    53.4210 ha         1 UF9       0.112500
     41 H11         21.5770    22.4870    54.4500 ha         1 UF9       0.111000
     42 H12         22.3020    24.3930    53.0470 ha         1 UF9       0.112500
     43 H13         22.6860    24.0780    50.6330 ha         1 UF9       0.116500
     44 H14         22.7210    19.3390    46.3490 h4         1 UF9       0.233000
     45 H15         23.2190    20.1770    42.6750 h2         1 UF9       0.117700
     46 H16         24.6970    18.5600    44.7940 h1         1 UF9       0.050700
     47 H17         24.6930    16.6500    43.3300 h1         1 UF9       0.086700
     48 H18         22.0330    16.9180    42.6970 h1         1 UF9       0.104700
     49 H19         23.1430    16.9430    45.5550 h1         1 UF9       0.070200
     50 H20         21.4530    16.6840    45.1460 h1         1 UF9       0.070200
     51 H21         21.3110    14.6310    42.7150 h1         1 UF9       0.052200
     52 H22         20.4790    14.5630    44.2750 h1         1 UF9       0.052200
     53 H23         23.0770    25.6990    46.8270 hn         1 UF9       0.501500
     54 H24         22.8300    24.2710    47.7630 hn         1 UF9       0.501500
     55 H25         25.9680    20.0670    43.6890 ho         1 UF9       0.520000
     56 H26         24.9670    17.9430    41.3490 ho         1 UF9       0.523000
     57 H1          18.5990    13.3620    43.1380 hn         1 UF9       0.386500
     58 H2          18.2730    11.7840    43.3680 hn         1 UF9       0.386500
@<TRIPOS>BOND
     1     1    10 ar  
     2     1    27 ar  
     3     1    28 1   
     4     2    10 1   
     5     2    11 1   
     6     2    19 2   
     7     3     4 1   
     8     3    57 1   
     9     3    58 1   
    10     4     5 1   
    11     4     7 1   
    12     4    35 1   
    13     5     6 1   
    14     5     8 1   
    15     7    25 1   
    16     7    36 1   
    17     7    37 1   
    18     9    27 ar  
    19     9    30 ar  
    20     9    38 1   
    21    10    26 ar  
    22    11    12 3   
    23    12    13 1   
    24    13    14 ar  
    25    13    18 ar  
    26    14    15 ar  
    27    14    39 1   
    28    15    16 ar  
    29    15    40 1   
    30    16    17 ar  
    31    16    41 1   
    32    17    18 ar  
    33    17    42 1   
    34    18    43 1   
    35    19    28 1   
    36    19    44 1   
    37    20    21 1   
    38    20    28 1   
    39    20    33 1   
    40    20    45 1   
    41    21    22 1   
    42    21    31 1   
    43    21    46 1   
    44    22    23 1   
    45    22    32 1   
    46    22    47 1   
    47    23    24 1   
    48    23    33 1   
    49    23    48 1   
    50    24    34 1   
    51    24    49 1   
    52    24    50 1   
    53    25    34 1   
    54    25    51 1   
    55    25    52 1   
    56    26    29 1   
    57    26    30 ar  
    58    29    53 1   
    59    29    54 1   
    60    31    55 1   
    61    32    56 1   
@<TRIPOS>SUBSTRUCTURE
     1 UF9         1 TEMP              0 ****  ****    0 ROOT
