@<TRIPOS>MOLECULE
UF9
   58    61     1     0     0
SMALL
No Charge or Current Charge


@<TRIPOS>ATOM
      1 C12         23.7140    21.6460    44.5440 ca         1 UF9       0.154500
      2 C14         22.6130    21.3860    46.5230 cc         1 UF9       0.005100
      3 N           19.9090    12.3210    45.1880 n8         1 UF9      -1.014200
      4 CA          20.8950    12.1840    44.0530 c3         1 UF9       0.021500
      5 C           21.3840    10.7040    43.7290 c          1 UF9       0.719000
      6 OXT         22.4320    10.2960    44.2150 o          1 UF9      -0.725500
      7 CB          22.0930    13.1580    44.2380 c3         1 UF9      -0.043400
      8 O           20.6830    10.0190    42.9940 o          1 UF9      -0.725500
      9 C10         25.5840    22.9390    44.2210 ca         1 UF9       0.176900
     10 C13         23.7220    22.0180    45.8670 ca         1 UF9      -0.240800
     11 C15         22.2190    21.4690    47.8860 cg         1 UF9      -0.093300
     12 C16         21.9420    21.5550    49.0710 ch         1 UF9      -0.143000
     13 C17         21.6350    21.6650    50.4580 ca         1 UF9       0.041000
     14 C18         21.8000    20.5550    51.3090 ca         1 UF9      -0.093500
     15 C19         21.4970    20.6640    52.6780 ca         1 UF9      -0.110500
     16 C20         21.0300    21.8830    53.2000 ca         1 UF9      -0.109000
     17 C21         20.8650    22.9920    52.3540 ca         1 UF9      -0.110500
     18 C22         21.1670    22.8840    50.9840 ca         1 UF9      -0.093500
     19 C23         21.9630    20.6510    45.5470 cd         1 UF9      -0.116100
     20 C25         22.2700    20.1660    43.0290 c5         1 UF9       0.273300
     21 C26         23.4320    19.4220    42.2590 c5         1 UF9       0.083300
     22 C28         22.7920    18.0470    41.8950 c5         1 UF9       0.155300
     23 C30         21.7990    17.8590    43.0820 c5         1 UF9       0.166300
     24 C32         22.4480    17.3990    44.4210 c3         1 UF9       0.027600
     25 C34         21.7060    14.6520    44.2110 c3         1 UF9       0.085600
     26 C8          24.7170    22.8850    46.3340 ca         1 UF9       0.438900
     27 N11         24.6540    22.1080    43.6930 nb         1 UF9      -0.225000
     28 N24         22.6440    20.7860    44.3090 na         1 UF9      -0.187400
     29 N7          24.7980    23.3060    47.6190 nv         1 UF9      -1.077900
     30 N9          25.6630    23.3520    45.5080 nb         1 UF9      -0.307000
     31 O27         23.8760    20.1040    41.0650 oh         1 UF9      -0.706000
     32 O29         22.1410    18.1620    40.6250 oh         1 UF9      -0.707000
     33 O31         21.2260    19.1780    43.2350 os         1 UF9      -0.453000
     34 S33         23.2200    15.7140    44.3270 ss         1 UF9      -0.461000
     35 H4          20.3570    12.5180    43.1550 h1         1 UF9       0.000700
     36 H6          22.6110    12.9330    45.1780 hc         1 UF9       0.060700
     37 H7          22.8140    12.9800    43.4310 hc         1 UF9       0.060700
     38 H8          26.3460    23.3140    43.5400 h5         1 UF9       0.042100
     39 H9          22.1610    19.6100    50.9100 ha         1 UF9       0.116500
     40 H10         21.6250    19.8050    53.3330 ha         1 UF9       0.112500
     41 H11         20.7970    21.9670    54.2600 ha         1 UF9       0.111000
     42 H12         20.5040    23.9360    52.7570 ha         1 UF9       0.112500
     43 H13         21.0380    23.7460    50.3340 ha         1 UF9       0.116500
     44 H14         21.0710    20.0410    45.6470 h4         1 UF9       0.233000
     45 H15         21.8720    20.9830    42.4140 h2         1 UF9       0.117700
     46 H16         24.2830    19.2580    42.9360 h1         1 UF9       0.050700
     47 H17         23.5490    17.2490    41.8700 h1         1 UF9       0.086700
     48 H18         21.0010    17.1520    42.8210 h1         1 UF9       0.104700
     49 H19         23.2250    18.1110    44.7250 h1         1 UF9       0.070200
     50 H20         21.6790    17.3910    45.2040 h1         1 UF9       0.070200
     51 H21         21.1770    14.8780    43.2760 h1         1 UF9       0.052200
     52 H22         21.0430    14.8840    45.0540 h1         1 UF9       0.052200
     53 H23         25.6740    23.7110    47.9380 hn         1 UF9       0.501500
     54 H24         24.2290    22.8280    48.3130 hn         1 UF9       0.501500
     55 H25         24.4600    20.8490    41.3500 ho         1 UF9       0.520000
     56 H26         22.5970    18.9530    40.2370 ho         1 UF9       0.523000
     57 H1          19.5220    13.2720    45.1960 hn         1 UF9       0.386500
     58 H2          19.0920    11.7290    44.9930 hn         1 UF9       0.386500
@<TRIPOS>BOND
     1     1    10 ar  
     2     1    27 ar  
     3     1    28 1   
     4     2    10 1   
     5     2    11 1   
     6     2    19 2   
     7     3     4 1   
     8     3    57 1   
     9     3    58 1   
    10     4     5 1   
    11     4     7 1   
    12     4    35 1   
    13     5     6 1   
    14     5     8 1   
    15     7    25 1   
    16     7    36 1   
    17     7    37 1   
    18     9    27 ar  
    19     9    30 ar  
    20     9    38 1   
    21    10    26 ar  
    22    11    12 3   
    23    12    13 1   
    24    13    14 ar  
    25    13    18 ar  
    26    14    15 ar  
    27    14    39 1   
    28    15    16 ar  
    29    15    40 1   
    30    16    17 ar  
    31    16    41 1   
    32    17    18 ar  
    33    17    42 1   
    34    18    43 1   
    35    19    28 1   
    36    19    44 1   
    37    20    21 1   
    38    20    28 1   
    39    20    33 1   
    40    20    45 1   
    41    21    22 1   
    42    21    31 1   
    43    21    46 1   
    44    22    23 1   
    45    22    32 1   
    46    22    47 1   
    47    23    24 1   
    48    23    33 1   
    49    23    48 1   
    50    24    34 1   
    51    24    49 1   
    52    24    50 1   
    53    25    34 1   
    54    25    51 1   
    55    25    52 1   
    56    26    29 1   
    57    26    30 ar  
    58    29    53 1   
    59    29    54 1   
    60    31    55 1   
    61    32    56 1   
@<TRIPOS>SUBSTRUCTURE
     1 UF9         1 TEMP              0 ****  ****    0 ROOT
