@<TRIPOS>MOLECULE
UFA
   62    66     1     0     0
SMALL
bcc


@<TRIPOS>ATOM
      1 C13        165.9750    54.4090    39.1050 ca         1 UFA      -0.126000
      2 C18        161.7290    58.1070    46.3270 c6         1 UFA      -0.018400
      3 C17        163.1370    57.8660    45.7760 c6         1 UFA      -0.065900
      4 C16        163.1520    56.7490    44.7370 c6         1 UFA      -0.091400
      5 C15        164.6240    52.7870    40.2620 ca         1 UFA      -0.114000
      6 C19        161.1530    56.8010    46.8810 c6         1 UFA      -0.065900
      7 C20        161.1800    55.6840    45.8430 c6         1 UFA      -0.091400
      8 C21        161.6990    59.2120    47.3520 ca         1 UFA      -0.074300
      9 C22        162.4480    59.1290    48.5270 ca         1 UFA      -0.124500
     10 C23        162.4140    60.1460    49.4700 ca         1 UFA      -0.127500
     11 C24        161.6260    61.2710    49.2580 ca         1 UFA      -0.130000
     12 C11        166.5110    53.7680    41.3620 ca         1 UFA      -0.114000
     13 C12        166.7830    54.5220    40.2280 ca         1 UFA      -0.129500
     14 C1         164.1050    49.7850    42.2330 ca         1 UFA      -0.332300
     15 C2         164.2540    48.4010    41.8870 ca         1 UFA       0.716200
     16 N1         165.4210    47.8300    41.6220 nb         1 UFA      -0.764000
     17 C3         166.4510    48.6660    41.7040 ca         1 UFA       0.458800
     18 C4         166.4270    50.0190    42.0260 ca         1 UFA      -0.144900
     19 C5         165.1850    50.6230    42.3090 ca         1 UFA       0.088700
     20 N2         167.7620    48.4200    41.5110 na         1 UFA      -0.129800
     21 N3         168.4850    49.5260    41.7010 nc         1 UFA      -0.174400
     22 N4         167.7020    50.4890    42.0090 nd         1 UFA      -0.201400
     23 C6         165.1120    52.0900    42.6410 c3         1 UFA       0.023900
     24 C7         165.4270    52.8970    41.3950 ca         1 UFA      -0.075300
     25 C8         163.7850    52.5200    43.2720 c3         1 UFA      -0.070400
     26 C9         163.8550    53.9250    43.8530 c3         1 UFA       0.163800
     27 N5         162.5600    54.3250    44.3730 n7         1 UFA      -0.817200
     28 C10        162.5850    55.4430    45.3020 c6         1 UFA       0.174500
     29 C14        164.8940    53.5360    39.1260 ca         1 UFA      -0.129500
     30 N6         163.1470    47.6340    41.7950 nv         1 UFA      -0.959500
     31 C25        160.8740    61.3670    48.0960 ca         1 UFA      -0.127500
     32 C26        160.9130    60.3450    47.1550 ca         1 UFA      -0.124500
     33 H1         166.1860    54.9940    38.2190 ha         1 UFA       0.129000
     34 H2         161.0950    58.4180    45.4870 hc         1 UFA       0.049700
     35 H3         163.8120    57.6020    46.5980 hc         1 UFA       0.043950
     36 H4         163.5280    58.7890    45.3410 hc         1 UFA       0.043950
     37 H5         164.1730    56.6000    44.3780 hc         1 UFA       0.043200
     38 H6         162.5540    57.0450    43.8650 hc         1 UFA       0.043200
     39 H7         163.7810    52.1060    40.2600 ha         1 UFA       0.131500
     40 H8         160.1290    56.9640    47.2270 hc         1 UFA       0.043950
     41 H9         161.7310    56.4920    47.7580 hc         1 UFA       0.043950
     42 H10        160.5160    55.9450    45.0090 hc         1 UFA       0.043200
     43 H11        160.7920    54.7590    46.2760 hc         1 UFA       0.043200
     44 H12        163.0690    58.2600    48.7120 ha         1 UFA       0.128000
     45 H13        163.0040    60.0610    50.3730 ha         1 UFA       0.129000
     46 H14        161.5990    62.0650    49.9940 ha         1 UFA       0.130000
     47 H15        167.1490    53.8600    42.2330 ha         1 UFA       0.131500
     48 H16        167.6290    55.1980    40.2220 ha         1 UFA       0.129500
     49 H17        163.1070    50.1470    42.4400 ha         1 UFA       0.144000
     50 H18        168.2180    47.5550    41.2610 hn         1 UFA       0.336700
     51 H19        165.9090    52.2820    43.3680 hc         1 UFA       0.079700
     52 H20        162.9840    52.4700    42.5270 hc         1 UFA       0.049700
     53 H21        163.5140    51.8270    44.0720 hc         1 UFA       0.049700
     54 H22        164.5710    53.9280    44.6810 h1         1 UFA       0.034700
     55 H23        164.2570    54.6180    43.1020 h1         1 UFA       0.034700
     56 H24        161.9440    54.5500    43.5990 hn         1 UFA       0.351800
     57 H26        163.2230    55.1380    46.1430 h1         1 UFA       0.057700
     58 H27        164.2600    53.4360    38.2540 ha         1 UFA       0.129500
     59 H28        163.2590    46.6360    41.7400 hn         1 UFA       0.432800
     60 H29        162.2810    47.9590    42.1880 hn         1 UFA       0.432800
     61 H30        160.2550    62.2370    47.9190 ha         1 UFA       0.129000
     62 H31        160.3210    60.4300    46.2500 ha         1 UFA       0.128000
@<TRIPOS>BOND
     1     1    13 ar  
     2     1    29 ar  
     3     1    33 1   
     4     2     3 1   
     5     2     6 1   
     6     2     8 1   
     7     2    34 1   
     8     3     4 1   
     9     3    35 1   
    10     3    36 1   
    11     4    28 1   
    12     4    37 1   
    13     4    38 1   
    14     5    24 ar  
    15     5    29 ar  
    16     5    39 1   
    17     6     7 1   
    18     6    40 1   
    19     6    41 1   
    20     7    28 1   
    21     7    42 1   
    22     7    43 1   
    23     8     9 ar  
    24     8    32 ar  
    25     9    10 ar  
    26     9    44 1   
    27    10    11 ar  
    28    10    45 1   
    29    11    31 ar  
    30    11    46 1   
    31    12    13 ar  
    32    12    24 ar  
    33    12    47 1   
    34    13    48 1   
    35    14    15 ar  
    36    14    19 ar  
    37    14    49 1   
    38    15    16 ar  
    39    15    30 1   
    40    16    17 ar  
    41    17    18 ar  
    42    17    20 1   
    43    18    19 ar  
    44    18    22 1   
    45    19    23 1   
    46    20    21 1   
    47    20    50 1   
    48    21    22 2   
    49    23    24 1   
    50    23    25 1   
    51    23    51 1   
    52    25    26 1   
    53    25    52 1   
    54    25    53 1   
    55    26    27 1   
    56    26    54 1   
    57    26    55 1   
    58    27    28 1   
    59    27    56 1   
    60    28    57 1   
    61    29    58 1   
    62    30    59 1   
    63    30    60 1   
    64    31    32 ar  
    65    31    61 1   
    66    32    62 1   
@<TRIPOS>SUBSTRUCTURE
     1 UFA         1 TEMP              0 ****  ****    0 ROOT
