@<TRIPOS>MOLECULE
UFA
   62    66     1     0     0
SMALL
No Charge or Current Charge


@<TRIPOS>ATOM
      1 C13        166.2490    54.6510    39.3970 ca         1 UFA      -0.108000
      2 C18        161.5990    57.9880    46.4660 c6         1 UFA      -0.018400
      3 C17        162.8500    57.9510    45.5470 c6         1 UFA      -0.065900
      4 C16        162.8970    56.6520    44.7010 c6         1 UFA      -0.091400
      5 C15        164.6910    53.0750    40.4070 ca         1 UFA      -0.096000
      6 C19        161.5560    56.7220    47.3660 c6         1 UFA      -0.065900
      7 C20        161.5990    55.4260    46.5180 c6         1 UFA      -0.091400
      8 C21        161.5320    59.2820    47.2930 ca         1 UFA      -0.074300
      9 C22        162.5420    59.5980    48.2270 ca         1 UFA      -0.106500
     10 C23        162.4710    60.7840    48.9770 ca         1 UFA      -0.109500
     11 C24        161.3910    61.6650    48.8010 ca         1 UFA      -0.112000
     12 C11        166.7820    53.6050    41.5300 ca         1 UFA      -0.096000
     13 C12        167.1230    54.4780    40.4830 ca         1 UFA      -0.111500
     14 C1         163.9300    49.8680    41.7510 ca         1 UFA      -0.249000
     15 C2         163.9900    48.5490    41.2850 ca         1 UFA       0.650900
     16 N1         165.0910    47.8180    41.1710 nb         1 UFA      -0.764000
     17 C3         166.2290    48.4390    41.5370 ca         1 UFA       0.393500
     18 C4         166.2960    49.7240    42.0050 ca         1 UFA      -0.079600
     19 C5         165.1310    50.5030    42.1390 ca         1 UFA       0.088700
     20 N2         167.5190    48.0080    41.5460 na         1 UFA      -0.180100
     21 N3         168.3570    49.0160    42.0090 nc         1 UFA      -0.174400
     22 N4         167.6080    50.0740    42.2930 nd         1 UFA      -0.201400
     23 C6         165.1950    51.9500    42.6480 c3         1 UFA       0.023900
     24 C7         165.5620    52.8990    41.5030 ca         1 UFA      -0.075300
     25 C8         163.9150    52.4140    43.3950 c3         1 UFA      -0.070400
     26 C9         164.0750    53.7910    44.0730 c3         1 UFA       0.163800
     27 N5         162.8420    54.1450    44.8020 n7         1 UFA      -0.872400
     28 C10        162.8490    55.3870    45.6030 c6         1 UFA       0.174500
     29 C14        165.0330    53.9480    39.3600 ca         1 UFA      -0.111500
     30 N6         162.9220    47.8530    40.9030 nv         1 UFA      -1.069900
     31 C25        160.3820    61.3590    47.8740 ca         1 UFA      -0.109500
     32 C26        160.4520    60.1720    47.1230 ca         1 UFA      -0.106500
     33 H1         166.5130    55.3260    38.5870 ha         1 UFA       0.111000
     34 H2         160.7140    57.9540    45.8140 hc         1 UFA       0.049700
     35 H3         163.7660    58.0240    46.1490 hc         1 UFA       0.043950
     36 H4         162.8460    58.8240    44.8800 hc         1 UFA       0.043950
     37 H5         163.8130    56.6560    44.0960 hc         1 UFA       0.043200
     38 H6         162.0550    56.6430    43.9950 hc         1 UFA       0.043200
     39 H7         163.7490    52.5360    40.3630 ha         1 UFA       0.113500
     40 H8         160.6430    56.7330    47.9770 hc         1 UFA       0.043950
     41 H9         162.4000    56.7260    48.0680 hc         1 UFA       0.043950
     42 H10        160.6860    55.3540    45.9110 hc         1 UFA       0.043200
     43 H11        161.5990    54.5530    47.1860 hc         1 UFA       0.043200
     44 H12        163.3840    58.9260    48.3740 ha         1 UFA       0.110000
     45 H13        163.2540    61.0210    49.6950 ha         1 UFA       0.111000
     46 H14        161.3370    62.5830    49.3820 ha         1 UFA       0.112000
     47 H15        167.4700    53.4800    42.3640 ha         1 UFA       0.113500
     48 H16        168.0660    55.0190    40.5120 ha         1 UFA       0.111500
     49 H17        162.9750    50.3760    41.7970 ha         1 UFA       0.126000
     50 H18        167.8560    47.0980    41.2630 hn         1 UFA       0.387000
     51 H19        165.9950    51.9870    43.3980 hc         1 UFA       0.079700
     52 H20        163.0670    52.4600    42.7020 hc         1 UFA       0.049700
     53 H21        163.6640    51.6700    44.1620 hc         1 UFA       0.049700
     54 H22        164.9280    53.7520    44.7640 h1         1 UFA       0.034700
     55 H23        164.3000    54.5430    43.3050 h1         1 UFA       0.034700
     56 H24        162.0660    54.1910    44.1330 hn         1 UFA       0.407000
     57 H26        163.7410    55.3850    46.2490 h1         1 UFA       0.057700
     58 H27        164.3560    54.0790    38.5190 ha         1 UFA       0.111500
     59 H28        163.0880    46.8570    40.8250 hn         1 UFA       0.488000
     60 H29        162.0250    48.1290    41.2860 hn         1 UFA       0.488000
     61 H30        159.5450    62.0400    47.7370 ha         1 UFA       0.111000
     62 H31        159.6630    59.9480    46.4080 ha         1 UFA       0.110000
@<TRIPOS>BOND
     1     1    13 ar  
     2     1    29 ar  
     3     1    33 1   
     4     2     3 1   
     5     2     6 1   
     6     2     8 1   
     7     2    34 1   
     8     3     4 1   
     9     3    35 1   
    10     3    36 1   
    11     4    28 1   
    12     4    37 1   
    13     4    38 1   
    14     5    24 ar  
    15     5    29 ar  
    16     5    39 1   
    17     6     7 1   
    18     6    40 1   
    19     6    41 1   
    20     7    28 1   
    21     7    42 1   
    22     7    43 1   
    23     8     9 ar  
    24     8    32 ar  
    25     9    10 ar  
    26     9    44 1   
    27    10    11 ar  
    28    10    45 1   
    29    11    31 ar  
    30    11    46 1   
    31    12    13 ar  
    32    12    24 ar  
    33    12    47 1   
    34    13    48 1   
    35    14    15 ar  
    36    14    19 ar  
    37    14    49 1   
    38    15    16 ar  
    39    15    30 1   
    40    16    17 ar  
    41    17    18 ar  
    42    17    20 1   
    43    18    19 ar  
    44    18    22 1   
    45    19    23 1   
    46    20    21 1   
    47    20    50 1   
    48    21    22 2   
    49    23    24 1   
    50    23    25 1   
    51    23    51 1   
    52    25    26 1   
    53    25    52 1   
    54    25    53 1   
    55    26    27 1   
    56    26    54 1   
    57    26    55 1   
    58    27    28 1   
    59    27    56 1   
    60    28    57 1   
    61    29    58 1   
    62    30    59 1   
    63    30    60 1   
    64    31    32 ar  
    65    31    61 1   
    66    32    62 1   
@<TRIPOS>SUBSTRUCTURE
     1 UFA         1 TEMP              0 ****  ****    0 ROOT
