@<TRIPOS>MOLECULE
UFD
   66    71     1     0     0
SMALL
abcg2


@<TRIPOS>ATOM
      1 C13        -25.8580   -51.7540    18.1770 ca         1 UFD      -0.111500
      2 C18        -30.3080   -52.5320    12.8160 c6         1 UFD      -0.062067
      3 C17        -29.1390   -51.6240    13.2410 c6         1 UFD      -0.078400
      4 C16        -24.4160   -53.0990    16.2330 ca         1 UFD      -0.095500
      5 C15        -24.9770   -53.8030    17.2920 ca         1 UFD      -0.111500
      6 C19        -30.2410   -52.8300    11.3130 c6         1 UFD      -0.003700
      7 C20        -30.0730   -51.4830    10.5890 c6         1 UFD      -0.062067
      8 C21        -31.4570   -53.5820    10.8000 ca         1 UFD      -0.063300
      9 C22        -27.7460   -53.0010    11.7120 c6         1 UFD      -0.078400
     10 C23        -28.9740   -53.6680    11.0620 c6         1 UFD      -0.062067
     11 C24        -32.4590   -54.0580    11.6430 ca         1 UFD      -0.109000
     12 C11        -28.7120   -50.8540    10.9400 c6         1 UFD      -0.078400
     13 C12        -25.2970   -51.0550    17.1180 ca         1 UFD      -0.095500
     14 C27        -32.6670   -54.5600     8.9330 ca         1 UFD      -0.110500
     15 C1         -23.1700   -48.6170    15.5270 ca         1 UFD      -0.250000
     16 C2         -22.1740   -47.7380    16.0690 ca         1 UFD       0.652900
     17 N1         -21.0040   -48.1510    16.5390 nb         1 UFD      -0.766000
     18 C3         -20.8380   -49.4680    16.4650 ca         1 UFD       0.395500
     19 C4         -21.7300   -50.4120    15.9680 ca         1 UFD      -0.080600
     20 C5         -22.9730   -49.9710    15.4700 ca         1 UFD       0.089700
     21 N2         -19.7800   -50.2120    16.8390 na         1 UFD      -0.181100
     22 N3         -19.9980   -51.5070    16.5910 nc         1 UFD      -0.175400
     23 N4         -21.1590   -51.6410    16.0700 nd         1 UFD      -0.201400
     24 N5         -22.4440   -46.4180    16.1370 nv         1 UFD      -1.071900
     25 C6         -23.9820   -50.9640    14.9580 c3         1 UFD       0.024900
     26 C7         -24.5740   -51.7210    16.1320 ca         1 UFD      -0.076300
     27 C8         -25.0620   -50.3490    14.0670 c3         1 UFD      -0.071400
     28 C9         -26.0180   -51.3960    13.5110 c3         1 UFD       0.165800
     29 N6         -26.9360   -50.7740    12.5760 n7         1 UFD      -0.873400
     30 C10        -28.0810   -51.5630    12.1390 c6         1 UFD       0.193200
     31 C14        -25.7010   -53.1320    18.2670 ca         1 UFD      -0.108000
     32 C25        -33.5470   -54.7680    11.1470 ca         1 UFD      -0.110500
     33 C26        -33.6600   -55.0210     9.7890 ca         1 UFD      -0.112000
     34 C28        -31.5850   -53.8530     9.4340 ca         1 UFD      -0.109000
     35 H1         -26.4160   -51.2210    18.9370 ha         1 UFD       0.112000
     36 H2         -31.2570   -52.0500    13.0650 hc         1 UFD       0.043367
     37 H3         -30.2850   -53.4700    13.3790 hc         1 UFD       0.043367
     38 H4         -28.7050   -51.9920    14.1730 hc         1 UFD       0.044200
     39 H5         -29.4900   -50.6090    13.4460 hc         1 UFD       0.044200
     40 H6         -23.8480   -53.6280    15.4780 ha         1 UFD       0.114000
     41 H7         -24.8440   -54.8750    17.3550 ha         1 UFD       0.112000
     42 H8         -30.8940   -50.8200    10.8750 hc         1 UFD       0.043367
     43 H9         -30.1510   -51.6150     9.5090 hc         1 UFD       0.043367
     44 H10        -27.4190   -53.5780    12.5820 hc         1 UFD       0.044200
     45 H11        -26.9030   -52.9870    11.0160 hc         1 UFD       0.044200
     46 H12        -29.1190   -54.6760    11.4570 hc         1 UFD       0.043367
     47 H13        -28.8220   -53.7800     9.9850 hc         1 UFD       0.043367
     48 H14        -32.4060   -53.8850    12.7090 ha         1 UFD       0.110500
     49 H15        -28.0280   -50.9180    10.0870 hc         1 UFD       0.044200
     50 H16        -28.8260   -49.7920    11.1700 hc         1 UFD       0.044200
     51 H17        -25.4230   -49.9800    17.0660 ha         1 UFD       0.114000
     52 H18        -32.7360   -54.7500     7.8690 ha         1 UFD       0.110500
     53 H19        -24.0890   -48.1760    15.1650 ha         1 UFD       0.127000
     54 H20        -18.9090   -49.9180    17.2560 hn         1 UFD       0.387000
     55 H21        -21.6940   -45.7830    16.3510 hn         1 UFD       0.489500
     56 H22        -23.2170   -46.0380    15.6200 hn         1 UFD       0.489500
     57 H23        -23.4280   -51.6890    14.3520 hc         1 UFD       0.077700
     58 H24        -24.5750   -49.8270    13.2370 hc         1 UFD       0.047700
     59 H25        -25.6440   -49.5990    14.6100 hc         1 UFD       0.047700
     60 H26        -26.5850   -51.8340    14.3360 h1         1 UFD       0.035700
     61 H27        -25.4370   -52.2210    13.0710 h1         1 UFD       0.035700
     62 H28        -26.4100   -50.4810    11.7590 hn         1 UFD       0.408000
     63 H30        -26.1380   -53.6770    19.0940 ha         1 UFD       0.111000
     64 H31        -34.3090   -55.1220    11.8300 ha         1 UFD       0.110500
     65 H32        -34.5070   -55.5710     9.4000 ha         1 UFD       0.112000
     66 H33        -30.8280   -53.5100     8.7400 ha         1 UFD       0.110500
@<TRIPOS>BOND
     1     1    13 ar  
     2     1    31 ar  
     3     1    35 1   
     4     2     3 1   
     5     2     6 1   
     6     2    36 1   
     7     2    37 1   
     8     3    30 1   
     9     3    38 1   
    10     3    39 1   
    11     4     5 ar  
    12     4    26 ar  
    13     4    40 1   
    14     5    31 ar  
    15     5    41 1   
    16     6     7 1   
    17     6     8 1   
    18     6    10 1   
    19     7    12 1   
    20     7    42 1   
    21     7    43 1   
    22     8    11 ar  
    23     8    34 ar  
    24     9    10 1   
    25     9    30 1   
    26     9    44 1   
    27     9    45 1   
    28    10    46 1   
    29    10    47 1   
    30    11    32 ar  
    31    11    48 1   
    32    12    30 1   
    33    12    49 1   
    34    12    50 1   
    35    13    26 ar  
    36    13    51 1   
    37    14    33 ar  
    38    14    34 ar  
    39    14    52 1   
    40    15    16 ar  
    41    15    20 ar  
    42    15    53 1   
    43    16    17 ar  
    44    16    24 1   
    45    17    18 ar  
    46    18    19 ar  
    47    18    21 1   
    48    19    20 ar  
    49    19    23 1   
    50    20    25 1   
    51    21    22 1   
    52    21    54 1   
    53    22    23 2   
    54    24    55 1   
    55    24    56 1   
    56    25    26 1   
    57    25    27 1   
    58    25    57 1   
    59    27    28 1   
    60    27    58 1   
    61    27    59 1   
    62    28    29 1   
    63    28    60 1   
    64    28    61 1   
    65    29    30 1   
    66    29    62 1   
    67    31    63 1   
    68    32    33 ar  
    69    32    64 1   
    70    33    65 1   
    71    34    66 1   
@<TRIPOS>SUBSTRUCTURE
     1 UFD         1 TEMP              0 ****  ****    0 ROOT
