@<TRIPOS>MOLECULE
UFD
   66    71     1     0     0
SMALL
No Charge or Current Charge


@<TRIPOS>ATOM
      1 C13        -25.8790   -51.2580    18.5280 ca         1 UFD      -0.111500
      2 C18        -30.3600   -52.9160    12.7920 c6         1 UFD      -0.062067
      3 C17        -29.1580   -52.1340    13.4040 c6         1 UFD      -0.078400
      4 C16        -24.5130   -52.9310    16.7320 ca         1 UFD      -0.095500
      5 C15        -25.0720   -53.4650    17.9060 ca         1 UFD      -0.111500
      6 C19        -30.3070   -52.9360    11.2240 c6         1 UFD      -0.003700
      7 C20        -30.2980   -51.4450    10.7520 c6         1 UFD      -0.062067
      8 C21        -31.4850   -53.7110    10.5630 ca         1 UFD      -0.063300
      9 C22        -27.7320   -52.7830    11.4240 c6         1 UFD      -0.078400
     10 C23        -28.9340   -53.5710    10.8160 c6         1 UFD      -0.062067
     11 C24        -32.5060   -54.3380    11.3210 ca         1 UFD      -0.109000
     12 C11        -29.0970   -50.6620    11.3650 c6         1 UFD      -0.078400
     13 C12        -25.3210   -50.7230    17.3540 ca         1 UFD      -0.095500
     14 C27        -32.6030   -54.4920     8.5210 ca         1 UFD      -0.110500
     15 C1         -23.0580   -48.6110    15.5970 ca         1 UFD      -0.250000
     16 C2         -21.9520   -47.8210    15.9350 ca         1 UFD       0.652900
     17 N1         -20.7280   -48.2690    16.1800 nb         1 UFD      -0.766000
     18 C3         -20.5810   -49.6040    16.0960 ca         1 UFD       0.395500
     19 C4         -21.5870   -50.4780    15.7780 ca         1 UFD      -0.080600
     20 C5         -22.8870   -50.0100    15.5060 ca         1 UFD       0.089700
     21 N2         -19.4930   -50.3980    16.2870 na         1 UFD      -0.181100
     22 N3         -19.8310   -51.7310    16.0910 nc         1 UFD      -0.175400
     23 N4         -21.1200   -51.7850    15.7770 nd         1 UFD      -0.201400
     24 N5         -21.9970   -46.4950    16.0390 nv         1 UFD      -1.071900
     25 C6         -24.0270   -50.9790    15.1630 c3         1 UFD       0.024900
     26 C7         -24.6360   -51.5550    16.4440 ca         1 UFD      -0.076300
     27 C8         -25.1080   -50.3750    14.2270 c3         1 UFD      -0.071400
     28 C9         -26.1380   -51.4160    13.7410 c3         1 UFD       0.165800
     29 N6         -27.1080   -50.7790    12.8240 n7         1 UFD      -0.873400
     30 C10        -28.2310   -51.5780    12.2810 c6         1 UFD       0.193200
     31 C14        -25.7560   -52.6290    18.8040 ca         1 UFD      -0.108000
     32 C25        -33.5540   -55.0280    10.6870 ca         1 UFD      -0.110500
     33 C26        -33.6040   -55.1060     9.2870 ca         1 UFD      -0.112000
     34 C28        -31.5550   -53.8020     9.1530 ca         1 UFD      -0.109000
     35 H1         -26.4070   -50.6080    19.2230 ha         1 UFD       0.112000
     36 H2         -31.2970   -52.4550    13.1340 hc         1 UFD       0.043367
     37 H3         -30.3540   -53.9430    13.1840 hc         1 UFD       0.043367
     38 H4         -28.6000   -52.8040    14.0710 hc         1 UFD       0.044200
     39 H5         -29.5280   -51.3110    14.0310 hc         1 UFD       0.044200
     40 H6         -23.9850   -53.5900    16.0470 ha         1 UFD       0.114000
     41 H7         -24.9740   -54.5270    18.1200 ha         1 UFD       0.112000
     42 H8         -31.2420   -50.9590    11.0350 hc         1 UFD       0.043367
     43 H9         -30.2420   -51.3840     9.6570 hc         1 UFD       0.043367
     44 H10        -27.1290   -53.4680    12.0350 hc         1 UFD       0.044200
     45 H11        -27.0750   -52.4290    10.6180 hc         1 UFD       0.044200
     46 H12        -28.8970   -54.6180    11.1480 hc         1 UFD       0.043367
     47 H13        -28.8270   -53.5970     9.7240 hc         1 UFD       0.043367
     48 H14        -32.5100   -54.3040    12.4060 ha         1 UFD       0.110500
     49 H15        -28.4810   -50.2450    10.5560 hc         1 UFD       0.044200
     50 H16        -29.4730   -49.8030    11.9380 hc         1 UFD       0.044200
     51 H17        -25.4210   -49.6580    17.1550 ha         1 UFD       0.114000
     52 H18        -32.6390   -54.5510     7.4350 ha         1 UFD       0.110500
     53 H19        -24.0180   -48.1410    15.4240 ha         1 UFD       0.127000
     54 H20        -18.5600   -50.0970    16.5370 hn         1 UFD       0.387000
     55 H21        -21.0860   -46.0540    16.0480 hn         1 UFD       0.489500
     56 H22        -22.7230   -46.0130    15.5220 hn         1 UFD       0.489500
     57 H23        -23.5810   -51.8030    14.5920 hc         1 UFD       0.077700
     58 H24        -24.6120   -49.9310    13.3550 hc         1 UFD       0.047700
     59 H25        -25.6450   -49.5670    14.7380 hc         1 UFD       0.047700
     60 H26        -26.6490   -51.8380    14.6160 h1         1 UFD       0.035700
     61 H27        -25.6040   -52.2320    13.2360 h1         1 UFD       0.035700
     62 H28        -26.5840   -50.3870    12.0340 hn         1 UFD       0.408000
     63 H30        -26.1880   -53.0430    19.7130 ha         1 UFD       0.111000
     64 H31        -34.3290   -55.5030    11.2840 ha         1 UFD       0.110500
     65 H32        -34.4160   -55.6410     8.7990 ha         1 UFD       0.112000
     66 H33        -30.7940   -53.3360     8.5320 ha         1 UFD       0.110500
@<TRIPOS>BOND
     1     1    13 ar  
     2     1    31 ar  
     3     1    35 1   
     4     2     3 1   
     5     2     6 1   
     6     2    36 1   
     7     2    37 1   
     8     3    30 1   
     9     3    38 1   
    10     3    39 1   
    11     4     5 ar  
    12     4    26 ar  
    13     4    40 1   
    14     5    31 ar  
    15     5    41 1   
    16     6     7 1   
    17     6     8 1   
    18     6    10 1   
    19     7    12 1   
    20     7    42 1   
    21     7    43 1   
    22     8    11 ar  
    23     8    34 ar  
    24     9    10 1   
    25     9    30 1   
    26     9    44 1   
    27     9    45 1   
    28    10    46 1   
    29    10    47 1   
    30    11    32 ar  
    31    11    48 1   
    32    12    30 1   
    33    12    49 1   
    34    12    50 1   
    35    13    26 ar  
    36    13    51 1   
    37    14    33 ar  
    38    14    34 ar  
    39    14    52 1   
    40    15    16 ar  
    41    15    20 ar  
    42    15    53 1   
    43    16    17 ar  
    44    16    24 1   
    45    17    18 ar  
    46    18    19 ar  
    47    18    21 1   
    48    19    20 ar  
    49    19    23 1   
    50    20    25 1   
    51    21    22 1   
    52    21    54 1   
    53    22    23 2   
    54    24    55 1   
    55    24    56 1   
    56    25    26 1   
    57    25    27 1   
    58    25    57 1   
    59    27    28 1   
    60    27    58 1   
    61    27    59 1   
    62    28    29 1   
    63    28    60 1   
    64    28    61 1   
    65    29    30 1   
    66    29    62 1   
    67    31    63 1   
    68    32    33 ar  
    69    32    64 1   
    70    33    65 1   
    71    34    66 1   
@<TRIPOS>SUBSTRUCTURE
     1 UFD         1 TEMP              0 ****  ****    0 ROOT
