@<TRIPOS>MOLECULE
UFG
   57    59     1     0     0
SMALL
No Charge or Current Charge


@<TRIPOS>ATOM
      1 N1          15.9230    15.0640    39.8880 n          1 UFG      -0.302000
      2 C2          15.6490    16.4390    40.0110 c          1 UFG       0.623000
      3 N3          16.7020    17.2330    40.3500 ns         1 UFG      -0.477500
      4 C4          17.9840    16.8640    40.5900 c          1 UFG       0.593200
      5 C5          18.2130    15.4310    40.4600 cc         1 UFG      -0.417200
      6 C6          17.2030    14.5600    40.1200 cd         1 UFG       0.043600
      7 O2          14.5430    16.9240    39.8380 o          1 UFG      -0.585000
      8 O4          18.8470    17.6700    40.8880 o          1 UFG      -0.582000
      9 C1D         14.8140    14.1580    39.4980 c5         1 UFG       0.334700
     10 C2D         15.0000    13.7800    37.9910 c5         1 UFG       0.136300
     11 O2D         14.5120    14.7630    37.0610 oh         1 UFG      -0.713000
     12 C3D         14.0830    12.5270    37.9570 c5         1 UFG       0.103300
     13 C4D         14.4530    11.8400    39.3250 c5         1 UFG       0.133300
     14 O8          14.8900    12.9070    40.2140 os         1 UFG      -0.468000
     15 O3D         12.6950    12.9370    37.8920 oh         1 UFG      -0.728000
     16 C5D         15.5580    10.7440    39.2340 c3         1 UFG       0.212600
     17 O5D         16.7830    11.3170    38.7470 os         1 UFG      -0.630400
     18 PA          18.1120    10.4080    38.6930 p5         1 UFG       1.467800
     19 O1A         19.3510    11.2350    38.6130 o          1 UFG      -0.838500
     20 O2A         18.1700     9.5210    39.8920 o          1 UFG      -0.838500
     21 O3A         17.8670     9.5460    37.3970 os         1 UFG      -0.711800
     22 PB          17.4560    10.3010    36.0780 p5         1 UFG       1.480800
     23 O1B         15.9770    10.3590    35.8980 o          1 UFG      -0.857500
     24 O2B         18.1030    11.6310    35.8800 o          1 UFG      -0.857500
     25 O3B         18.1020     9.2590    35.0420 os         1 UFG      -0.588400
     26 C1          17.3960     8.0290    34.8530 c6         1 UFG       0.450300
     27 C7          18.3180     6.7640    35.0440 c6         1 UFG       0.150300
     28 C3          19.4190     6.7440    33.9460 c6         1 UFG       0.102300
     29 C8          18.7600     6.8140    32.5400 c6         1 UFG       0.135300
     30 C9          17.8140     8.0450    32.4380 c6         1 UFG       0.156300
     31 C10         17.0440     8.0960    31.0760 c3         1 UFG       0.160600
     32 O7          18.9510     6.6760    36.3360 oh         1 UFG      -0.669000
     33 O3          20.2460     5.5660    34.0850 oh         1 UFG      -0.683000
     34 O5          16.8370     8.0240    33.5170 os         1 UFG      -0.473000
     35 O6          16.1260     6.9990    30.8860 oh         1 UFG      -0.717000
     36 F4          19.7890     6.9390    31.5780 f          1 UFG      -0.292000
     37 HN3         16.5010    18.2160    40.4350 hn         1 UFG       0.316500
     38 H5          19.2270    15.0970    40.6490 ha         1 UFG       0.234000
     39 H6          17.3100    13.4800    40.0100 h4         1 UFG       0.276000
     40 H1D         13.8480    14.6450    39.6810 h2         1 UFG       0.096700
     41 H2D         16.0450    13.5150    37.7750 h1         1 UFG       0.108700
     42 HO2         13.5480    14.5430    36.9990 ho         1 UFG       0.516000
     43 H3D         14.3410    11.8770    37.1070 h1         1 UFG       0.128700
     44 H4D         13.5650    11.3690    39.7670 h1         1 UFG       0.038700
     45 HO3         12.1420    12.1200    37.8800 ho         1 UFG       0.494000
     46 H5'1        15.6960    10.3150    40.2350 h1         1 UFG       0.045700
     47 H5'2        15.2110     9.9410    38.5700 h1         1 UFG       0.045700
     48 H1          16.5740     7.9410    35.5830 h2         1 UFG       0.104700
     49 H2          17.6850     5.8760    34.9020 h1         1 UFG       0.017700
     50 H3          20.0330     7.6510    34.0690 h1         1 UFG       0.092700
     51 H4          18.2070     5.8880    32.3280 h1         1 UFG       0.066700
     52 H7          18.4140     8.9640    32.5160 h1         1 UFG       0.094700
     53 H6'1        16.4990     9.0490    31.0380 h1         1 UFG       0.031200
     54 H6'2        17.7810     8.1170    30.2620 h1         1 UFG       0.031200
     55 HO2A        19.7280     6.0890    36.1830 ho         1 UFG       0.487000
     56 HO3A        20.8220     5.5320    33.2870 ho         1 UFG       0.439000
     57 HO6         15.6310     7.1810    30.0530 ho         1 UFG       0.481000
@<TRIPOS>BOND
     1     1     2 1   
     2     1     6 1   
     3     1     9 1   
     4     2     3 1   
     5     2     7 2   
     6     3     4 1   
     7     3    37 1   
     8     4     5 1   
     9     4     8 2   
    10     5     6 2   
    11     5    38 1   
    12     6    39 1   
    13     9    10 1   
    14     9    14 1   
    15     9    40 1   
    16    10    11 1   
    17    10    12 1   
    18    10    41 1   
    19    11    42 1   
    20    12    13 1   
    21    12    15 1   
    22    12    43 1   
    23    13    14 1   
    24    13    16 1   
    25    13    44 1   
    26    15    45 1   
    27    16    17 1   
    28    16    46 1   
    29    16    47 1   
    30    17    18 1   
    31    18    19 1   
    32    18    20 1   
    33    18    21 1   
    34    21    22 1   
    35    22    23 1   
    36    22    24 1   
    37    22    25 1   
    38    25    26 1   
    39    26    27 1   
    40    26    34 1   
    41    26    48 1   
    42    27    28 1   
    43    27    32 1   
    44    27    49 1   
    45    28    29 1   
    46    28    33 1   
    47    28    50 1   
    48    29    30 1   
    49    29    36 1   
    50    29    51 1   
    51    30    31 1   
    52    30    34 1   
    53    30    52 1   
    54    31    35 1   
    55    31    53 1   
    56    31    54 1   
    57    32    55 1   
    58    33    56 1   
    59    35    57 1   
@<TRIPOS>SUBSTRUCTURE
     1 UFG         1 TEMP              0 ****  ****    0 ROOT
