@<TRIPOS>MOLECULE
UFG
   57    59     1     0     0
SMALL
bcc


@<TRIPOS>ATOM
      1 N1          15.8220    15.2240    39.7620 n          1 UFG      -0.369000
      2 C2          15.4240    16.5030    40.1020 c          1 UFG       0.832500
      3 N3          16.4480    17.3390    40.4630 ns         1 UFG      -0.611500
      4 C4          17.8040    17.0550    40.5330 c          1 UFG       0.735700
      5 C5          18.1240    15.7010    40.1540 cc         1 UFG      -0.367200
      6 C6          17.1400    14.8620    39.7970 cd         1 UFG       0.093600
      7 O2          14.2700    16.8740    40.0870 o          1 UFG      -0.660500
      8 O4          18.5970    17.9060    40.8880 o          1 UFG      -0.657500
      9 C1D         14.8160    14.2320    39.4100 c5         1 UFG       0.311500
     10 C2D         14.9210    13.7190    37.9760 c5         1 UFG       0.113100
     11 O2D         14.3150    14.6320    37.1140 oh         1 UFG      -0.590800
     12 C3D         14.2540    12.3500    38.1100 c5         1 UFG       0.080100
     13 C4D         14.7340    11.9090    39.5010 c5         1 UFG       0.110100
     14 O8          14.9770    13.1140    40.2340 os         1 UFG      -0.421600
     15 O3D         12.8610    12.5530    38.0770 oh         1 UFG      -0.605800
     16 C5D         15.9550    11.0150    39.5190 c3         1 UFG       0.189400
     17 O5D         17.0220    11.6270    38.8270 os         1 UFG      -0.607200
     18 PA          18.4640    10.8440    38.6560 p5         1 UFG       1.467800
     19 O1A         19.4050    11.8620    38.1050 o          1 UFG      -0.838500
     20 O2A         18.7710    10.0630    39.8920 o          1 UFG      -0.838500
     21 O3A         18.0820     9.7200    37.5140 os         1 UFG      -0.711800
     22 PB          17.1940     9.8640    36.1420 p5         1 UFG       1.480800
     23 O1B         15.7590     9.5370    36.4250 o          1 UFG      -0.857500
     24 O2B         17.5690    11.1010    35.3950 o          1 UFG      -0.857500
     25 O3B         17.8950     8.5570    35.4010 os         1 UFG      -0.565200
     26 C1          17.1330     7.5710    34.7850 c6         1 UFG       0.403900
     27 C7          17.9300     6.2680    34.7640 c6         1 UFG       0.127100
     28 C3          19.1600     6.4110    33.8740 c6         1 UFG       0.079100
     29 C8          18.7180     6.8950    32.5050 c6         1 UFG       0.116600
     30 C9          17.8790     8.1650    32.6100 c6         1 UFG       0.133100
     31 C10         17.3340     8.6400    31.2800 c3         1 UFG       0.137400
     32 O7          18.2590     5.9270    36.0820 oh         1 UFG      -0.546800
     33 O3          19.7800     5.1460    33.8140 oh         1 UFG      -0.620800
     34 O5          16.7830     7.9290    33.4770 os         1 UFG      -0.426600
     35 O6          16.5850     7.6140    30.6780 oh         1 UFG      -0.594800
     36 F4          19.8470     7.1760    31.7320 f          1 UFG      -0.273300
     37 HN3         16.1650    18.2790    40.7140 hn         1 UFG       0.316500
     38 H5          19.1510    15.3700    40.1660 ha         1 UFG       0.184000
     39 H6          17.3540    13.8390    39.5190 h4         1 UFG       0.226000
     40 H1D         13.8450    14.7070    39.5640 h2         1 UFG       0.096700
     41 H2D         15.9730    13.5550    37.7150 h1         1 UFG       0.108700
     42 HO2         14.5360    14.3950    36.2090 ho         1 UFG       0.417000
     43 H3D         14.5780    11.6450    37.3360 h1         1 UFG       0.128700
     44 H4D         13.9370    11.3500    40.0060 h1         1 UFG       0.038700
     45 HO3         12.4290    11.7000    38.1820 ho         1 UFG       0.395000
     46 H5'1        16.2290    10.8090    40.5590 h1         1 UFG       0.045700
     47 H5'2        15.6720    10.0640    39.0590 h1         1 UFG       0.045700
     48 H1          16.1850     7.4180    35.3080 h2         1 UFG       0.104700
     49 H2          17.2720     5.5090    34.3120 h1         1 UFG       0.017700
     50 H3          19.8340     7.1580    34.3160 h1         1 UFG       0.092700
     51 H4          18.1590     6.1040    31.9980 h1         1 UFG       0.066700
     52 H7          18.5110     8.9750    33.0000 h1         1 UFG       0.094700
     53 H6'1        16.7290     9.5380    31.4610 h1         1 UFG       0.031200
     54 H6'2        18.1820     8.9530    30.6590 h1         1 UFG       0.031200
     55 HO2A        18.7120     5.0780    36.0650 ho         1 UFG       0.388000
     56 HO3A        20.6980     5.2590    33.5510 ho         1 UFG       0.400000
     57 HO6         16.3180     7.9090    29.8030 ho         1 UFG       0.382000
@<TRIPOS>BOND
     1     1     2 1   
     2     1     6 1   
     3     1     9 1   
     4     2     3 1   
     5     2     7 2   
     6     3     4 1   
     7     3    37 1   
     8     4     5 1   
     9     4     8 2   
    10     5     6 2   
    11     5    38 1   
    12     6    39 1   
    13     9    10 1   
    14     9    14 1   
    15     9    40 1   
    16    10    11 1   
    17    10    12 1   
    18    10    41 1   
    19    11    42 1   
    20    12    13 1   
    21    12    15 1   
    22    12    43 1   
    23    13    14 1   
    24    13    16 1   
    25    13    44 1   
    26    15    45 1   
    27    16    17 1   
    28    16    46 1   
    29    16    47 1   
    30    17    18 1   
    31    18    19 1   
    32    18    20 1   
    33    18    21 1   
    34    21    22 1   
    35    22    23 1   
    36    22    24 1   
    37    22    25 1   
    38    25    26 1   
    39    26    27 1   
    40    26    34 1   
    41    26    48 1   
    42    27    28 1   
    43    27    32 1   
    44    27    49 1   
    45    28    29 1   
    46    28    33 1   
    47    28    50 1   
    48    29    30 1   
    49    29    36 1   
    50    29    51 1   
    51    30    31 1   
    52    30    34 1   
    53    30    52 1   
    54    31    35 1   
    55    31    53 1   
    56    31    54 1   
    57    32    55 1   
    58    33    56 1   
    59    35    57 1   
@<TRIPOS>SUBSTRUCTURE
     1 UFG         1 TEMP              0 ****  ****    0 ROOT
