@<TRIPOS>MOLECULE
UFH
   21    22     1     0     0
SMALL
No Charge or Current Charge


@<TRIPOS>ATOM
      1 C02        -21.1760   -20.9450    -4.5340 c          1 UFH       0.584500
      2 C03        -21.9710   -21.1360    -3.2650 ca         1 UFH      -0.182600
      3 C04        -23.2560   -21.7200    -3.3290 ca         1 UFH      -0.039000
      4 C05        -24.0170   -21.9080    -2.1640 ca         1 UFH      -0.126000
      5 C06        -23.5130   -21.5200    -0.9080 ca         1 UFH       0.041800
      6 C08        -23.7590   -22.0490     1.4820 cc         1 UFH       0.408400
      7 C10        -25.9180   -21.8850     1.6410 cd         1 UFH       0.238900
      8 C11        -25.6400   -21.6040     0.3260 cc         1 UFH      -0.218000
      9 C12        -22.2320   -20.9380    -0.8400 ca         1 UFH      -0.119000
     10 C13        -21.4660   -20.7450    -2.0030 ca         1 UFH       0.038100
     11 N07        -24.2720   -21.7110     0.2510 na         1 UFH      -0.089300
     12 N09        -24.7580   -22.1610     2.3520 nd         1 UFH      -0.662000
     13 Br1        -19.7350   -19.9380    -1.8020 br         1 UFH      -0.074100
     14 H1         -20.1700   -20.4840    -4.4390 h4         1 UFH       0.014200
     15 H4         -23.6710   -22.0320    -4.2860 ha         1 UFH       0.144000
     16 H5         -24.9990   -22.3700    -2.2430 ha         1 UFH       0.137000
     17 H6         -22.7030   -22.2030     1.6710 h5         1 UFH       0.060100
     18 H7         -26.8910   -21.9040     2.1190 h4         1 UFH       0.043100
     19 H8         -26.2830   -21.3410    -0.5040 h4         1 UFH       0.162000
     20 H9         -21.8250   -20.6180     0.1160 ha         1 UFH       0.145000
     21 O1         -21.5950   -21.2750    -5.6400 o          1 UFH      -0.506100
@<TRIPOS>BOND
     1     1     2 1   
     2     1    14 1   
     3     1    21 2   
     4     2     3 ar  
     5     2    10 ar  
     6     3     4 ar  
     7     3    15 1   
     8     4     5 ar  
     9     4    16 1   
    10     5     9 ar  
    11     5    11 1   
    12     6    11 1   
    13     6    12 2   
    14     6    17 1   
    15     7     8 2   
    16     7    12 1   
    17     7    18 1   
    18     8    11 1   
    19     8    19 1   
    20     9    10 ar  
    21     9    20 1   
    22    10    13 1   
@<TRIPOS>SUBSTRUCTURE
     1 UFH         1 TEMP              0 ****  ****    0 ROOT
