@<TRIPOS>MOLECULE
UFH
   21    22     1     0     0
SMALL
abcg2


@<TRIPOS>ATOM
      1 C02        -21.2060   -20.9640    -4.5090 c          1 UFH       0.584500
      2 C03        -21.9630   -21.1290    -3.2490 ca         1 UFH      -0.182600
      3 C04        -23.2350   -21.7020    -3.3090 ca         1 UFH      -0.039000
      4 C05        -23.9980   -21.9050    -2.1800 ca         1 UFH      -0.126000
      5 C06        -23.4940   -21.5180    -0.9420 ca         1 UFH       0.041800
      6 C08        -23.7810   -22.0510     1.4520 cc         1 UFH       0.408400
      7 C10        -25.8950   -21.8830     1.6390 cd         1 UFH       0.238900
      8 C11        -25.6210   -21.6070     0.3360 cc         1 UFH      -0.218000
      9 C12        -22.2390   -20.9290    -0.8470 ca         1 UFH      -0.119000
     10 C13        -21.4830   -20.7500    -1.9940 ca         1 UFH       0.038100
     11 N07        -24.2540   -21.7110     0.2200 na         1 UFH      -0.089300
     12 N09        -24.7410   -22.1650     2.3220 nd         1 UFH      -0.662000
     13 BR1        -19.7920   -19.9380    -1.7760 br         1 UFH      -0.074100
     14 H1         -20.2060   -20.5170    -4.4280 h4         1 UFH       0.014200
     15 H4         -23.6250   -22.0070    -4.2720 ha         1 UFH       0.144000
     16 H5         -24.9670   -22.3770    -2.2590 ha         1 UFH       0.137000
     17 H6         -22.7320   -22.2290     1.6360 h5         1 UFH       0.060100
     18 H7         -26.8600   -21.8890     2.1220 h4         1 UFH       0.043100
     19 H8         -26.2510   -21.3200    -0.4880 h4         1 UFH       0.162000
     20 H9         -21.8660   -20.5960     0.1120 ha         1 UFH       0.145000
     21 O1         -21.6420   -21.2990    -5.5840 o          1 UFH      -0.506100
@<TRIPOS>BOND
     1     1     2 1   
     2     1    14 1   
     3     1    21 2   
     4     2     3 ar  
     5     2    10 ar  
     6     3     4 ar  
     7     3    15 1   
     8     4     5 ar  
     9     4    16 1   
    10     5     9 ar  
    11     5    11 1   
    12     6    11 1   
    13     6    12 2   
    14     6    17 1   
    15     7     8 2   
    16     7    12 1   
    17     7    18 1   
    18     8    11 1   
    19     8    19 1   
    20     9    10 ar  
    21     9    20 1   
    22    10    13 1   
@<TRIPOS>SUBSTRUCTURE
     1 UFH         1 TEMP              0 ****  ****    0 ROOT
