@<TRIPOS>MOLECULE
UFI
   27    29     1     0     0
SMALL
abcg2


@<TRIPOS>ATOM
      1 C1          11.1560    21.1400    24.4790 c3         1 UFI       0.146900
      2 C10          8.9640    16.0530    24.6560 ca         1 UFI      -0.151000
      3 C11          9.5080    17.3140    24.6110 ca         1 UFI      -0.023000
      4 C12          9.8350    18.0000    25.7980 ca         1 UFI      -0.092000
      5 C13          9.5970    17.3730    27.0410 ca         1 UFI       0.060000
      6 C2          10.4020    19.3130    25.7880 ca         1 UFI       0.211100
      7 C3          10.7040    19.9450    26.9780 ca         1 UFI      -0.249000
      8 C4          10.4580    19.3030    28.1920 ca         1 UFI       0.035000
      9 C5           9.9140    18.0390    28.2450 ca         1 UFI      -0.216600
     10 C6           9.6750    17.4050    29.5410 c          1 UFI       0.618600
     11 C7           8.7920    15.4150    28.3390 c          1 UFI       0.580600
     12 C8           9.0400    16.0780    27.0590 ca         1 UFI      -0.175600
     13 C9           8.7270    15.4290    25.8850 ca         1 UFI       0.002000
     14 N1           9.1260    16.1340    29.4640 n          1 UFI      -0.251900
     15 O1          10.5980    19.8400    24.5860 os         1 UFI      -0.334100
     16 O2           8.3230    14.2970    28.4740 o          1 UFI      -0.546000
     17 O3           8.9020    15.5310    30.6640 oh         1 UFI      -0.420100
     18 O4           9.9180    17.9060    30.6160 o          1 UFI      -0.488000
     19 H1          11.2200    21.3560    23.4170 h1         1 UFI       0.051033
     20 H2          10.5220    21.8880    24.9600 h1         1 UFI       0.051033
     21 H3          12.1570    21.1820    24.9140 h1         1 UFI       0.051033
     22 H5           9.6850    17.7800    23.6520 ha         1 UFI       0.132000
     23 H6          11.1330    20.9370    26.9940 ha         1 UFI       0.129000
     24 H7          10.7020    19.8210    29.1110 ha         1 UFI       0.140000
     25 H8           8.2990    14.4360    25.9110 ha         1 UFI       0.142000
     26 H9           8.5580    14.6530    30.4210 ho         1 UFI       0.471000
     27 H4           8.7160    15.5380    23.7380 ha         1 UFI       0.127000
@<TRIPOS>BOND
     1     1    15 1   
     2     1    19 1   
     3     1    20 1   
     4     1    21 1   
     5     2     3 ar  
     6     2    13 ar  
     7     2    27 1   
     8     3     4 ar  
     9     3    22 1   
    10     4     5 ar  
    11     4     6 ar  
    12     5     9 ar  
    13     5    12 ar  
    14     6     7 ar  
    15     6    15 1   
    16     7     8 ar  
    17     7    23 1   
    18     8     9 ar  
    19     8    24 1   
    20     9    10 1   
    21    10    14 1   
    22    10    18 2   
    23    11    12 1   
    24    11    14 1   
    25    11    16 2   
    26    12    13 ar  
    27    13    25 1   
    28    14    17 1   
    29    17    26 1   
@<TRIPOS>SUBSTRUCTURE
     1 UFI         1 TEMP              0 ****  ****    0 ROOT
