@<TRIPOS>MOLECULE
UFI
   27    29     1     0     0
SMALL
No Charge or Current Charge


@<TRIPOS>ATOM
      1 C1          11.2520    21.1940    24.4470 c3         1 UFI       0.146900
      2 C10          8.9180    16.0630    24.5860 ca         1 UFI      -0.151000
      3 C11          9.4990    17.3390    24.5690 ca         1 UFI      -0.023000
      4 C12          9.8130    17.9940    25.7800 ca         1 UFI      -0.092000
      5 C13          9.5370    17.3520    27.0130 ca         1 UFI       0.060000
      6 C2          10.3990    19.2800    25.7670 ca         1 UFI       0.211100
      7 C3          10.7040    19.9150    26.9870 ca         1 UFI      -0.249000
      8 C4          10.4310    19.2790    28.2050 ca         1 UFI       0.035000
      9 C5           9.8470    17.9970    28.2280 ca         1 UFI      -0.216600
     10 C6           9.5630    17.3350    29.5470 c          1 UFI       0.618600
     11 C7           8.6530    15.3700    28.3240 c          1 UFI       0.580600
     12 C8           8.9520    16.0670    27.0260 ca         1 UFI      -0.175600
     13 C9           8.6460    15.4280    25.8060 ca         1 UFI       0.002000
     14 N1           8.9770    16.0580    29.5060 n          1 UFI      -0.251900
     15 O1          10.6590    19.8870    24.5510 os         1 UFI      -0.334100
     16 O2           8.1540    14.2500    28.3520 o          1 UFI      -0.546000
     17 O3           8.6750    15.4020    30.7830 oh         1 UFI      -0.420100
     18 O4           9.8350    17.8820    30.6100 o          1 UFI      -0.488000
     19 H1          11.3670    21.4760    23.3930 h1         1 UFI       0.051033
     20 H2          10.6220    21.9490    24.9340 h1         1 UFI       0.051033
     21 H3          12.2460    21.2100    24.9120 h1         1 UFI       0.051033
     22 H5           9.7000    17.8100    23.6100 ha         1 UFI       0.132000
     23 H6          11.1550    20.9030    27.0140 ha         1 UFI       0.129000
     24 H7          10.6770    19.7910    29.1350 ha         1 UFI       0.140000
     25 H8           8.1950    14.4370    25.7970 ha         1 UFI       0.142000
     26 H9           9.4770    14.8740    31.0020 ho         1 UFI       0.471000
     27 H4           8.6790    15.5640    23.6500 ha         1 UFI       0.127000
@<TRIPOS>BOND
     1     1    15 1   
     2     1    19 1   
     3     1    20 1   
     4     1    21 1   
     5     2     3 ar  
     6     2    13 ar  
     7     2    27 1   
     8     3     4 ar  
     9     3    22 1   
    10     4     5 ar  
    11     4     6 ar  
    12     5     9 ar  
    13     5    12 ar  
    14     6     7 ar  
    15     6    15 1   
    16     7     8 ar  
    17     7    23 1   
    18     8     9 ar  
    19     8    24 1   
    20     9    10 1   
    21    10    14 1   
    22    10    18 2   
    23    11    12 1   
    24    11    14 1   
    25    11    16 2   
    26    12    13 ar  
    27    13    25 1   
    28    14    17 1   
    29    17    26 1   
@<TRIPOS>SUBSTRUCTURE
     1 UFI         1 TEMP              0 ****  ****    0 ROOT
