@<TRIPOS>MOLECULE
UFJ
   39    39     1     0     0
SMALL
bcc


@<TRIPOS>ATOM
      1 C13         67.4560    47.1670     1.3690 ca         1 UFJ      -0.069000
      2 C17         65.2640    45.4490     1.3700 ca         1 UFJ      -0.174500
      3 C02         67.7990    36.8720     0.9910 c          1 UFJ       0.666100
      4 C03         67.9580    37.8070    -0.1840 c3         1 UFJ      -0.159400
      5 C04         66.9110    38.9170    -0.1690 c3         1 UFJ      -0.069400
      6 C05         67.1060    39.9080    -1.3100 c3         1 UFJ      -0.075400
      7 C06         66.0540    41.0090    -1.3120 c3         1 UFJ      -0.080400
      8 C07         66.2920    42.0460    -2.4030 c3         1 UFJ      -0.068400
      9 C08         65.1820    43.0980    -2.5040 c3         1 UFJ      -0.164400
     10 C09         64.9540    43.8270    -1.1990 c          1 UFJ       0.676100
     11 C11         66.1200    45.4720     0.2680 ca         1 UFJ       0.090600
     12 C12         67.2150    46.3400     0.2870 ca         1 UFJ      -0.174500
     13 C14         66.5940    47.1350     2.4560 ca         1 UFJ       0.027900
     14 C16         65.5050    46.2790     2.4560 ca         1 UFJ      -0.069000
     15 I15         66.9420    48.3900     4.1060 i          1 UFJ      -0.176900
     16 N10         65.9680    44.6720    -0.8640 ns         1 UFJ      -0.475100
     17 N19         67.6710    35.5780     0.6360 ns         1 UFJ      -0.453400
     18 O01         67.8120    37.2490     2.1500 o          1 UFJ      -0.565100
     19 O18         63.9670    43.6520    -0.5070 o          1 UFJ      -0.572100
     20 O20         67.3390    34.6470     1.5740 oh         1 UFJ      -0.388100
     21 H1          68.3140    47.8250     1.3480 ha         1 UFJ       0.145500
     22 H2          64.4100    44.7930     1.4000 ha         1 UFJ       0.149500
     23 H3          67.9150    37.2650    -1.1320 hc         1 UFJ       0.058700
     24 H4          68.9600    38.2440    -0.1230 hc         1 UFJ       0.058700
     25 H5          66.9550    39.4490     0.7840 hc         1 UFJ       0.057200
     26 H6          65.9120    38.4760    -0.2330 hc         1 UFJ       0.057200
     27 H7          67.0830    39.3780    -2.2670 hc         1 UFJ       0.036700
     28 H8          68.1030    40.3550    -1.2330 hc         1 UFJ       0.036700
     29 H9          66.0480    41.4960    -0.3310 hc         1 UFJ       0.052200
     30 H10         66.3670    41.5480    -3.3730 hc         1 UFJ       0.041700
     31 H11         65.4290    43.8160    -3.2900 hc         1 UFJ       0.070200
     32 H12         64.2430    42.6200    -2.7860 hc         1 UFJ       0.070200
     33 H13         67.8930    46.3720    -0.5570 ha         1 UFJ       0.149500
     34 H14         64.8270    46.2410     3.2980 ha         1 UFJ       0.145500
     35 H15         66.7060    44.7650    -1.5460 hn         1 UFJ       0.316500
     36 H16         67.4540    35.3090    -0.3130 hn         1 UFJ       0.329500
     37 H17         68.1610    34.1940     1.8010 ho         1 UFJ       0.407000
     38 H18         65.0610    40.5670    -1.4380 hc         1 UFJ       0.052200
     39 H19         67.2590    42.5320    -2.2430 hc         1 UFJ       0.041700
@<TRIPOS>BOND
     1     1    12 ar  
     2     1    13 ar  
     3     1    21 1   
     4     2    11 ar  
     5     2    14 ar  
     6     2    22 1   
     7     3     4 1   
     8     3    17 1   
     9     3    18 2   
    10     4     5 1   
    11     4    23 1   
    12     4    24 1   
    13     5     6 1   
    14     5    25 1   
    15     5    26 1   
    16     6     7 1   
    17     6    27 1   
    18     6    28 1   
    19     7     8 1   
    20     7    29 1   
    21     7    38 1   
    22     8     9 1   
    23     8    30 1   
    24     8    39 1   
    25     9    10 1   
    26     9    31 1   
    27     9    32 1   
    28    10    16 1   
    29    10    19 2   
    30    11    12 ar  
    31    11    16 1   
    32    12    33 1   
    33    13    14 ar  
    34    13    15 1   
    35    14    34 1   
    36    16    35 1   
    37    17    20 1   
    38    17    36 1   
    39    20    37 1   
@<TRIPOS>SUBSTRUCTURE
     1 UFJ         1 TEMP              0 ****  ****    0 ROOT
