@<TRIPOS>MOLECULE
UFJ
   39    39     1     0     0
SMALL
No Charge or Current Charge


@<TRIPOS>ATOM
      1 C13         66.7230    48.3010     0.8430 ca         1 UFJ      -0.051000
      2 C17         65.5730    45.8500     1.5980 ca         1 UFJ      -0.156500
      3 C02         67.7390    36.1710     0.7610 c          1 UFJ       0.599100
      4 C03         68.0940    37.3310    -0.1780 c3         1 UFJ      -0.159400
      5 C04         67.0130    38.4390    -0.1520 c3         1 UFJ      -0.069400
      6 C05         67.3400    39.6220    -1.0900 c3         1 UFJ      -0.075400
      7 C06         66.2630    40.7280    -1.0650 c3         1 UFJ      -0.080400
      8 C07         66.5950    41.9130    -2.0020 c3         1 UFJ      -0.068400
      9 C08         65.5010    43.0100    -2.0730 c3         1 UFJ      -0.164400
     10 C09         65.3230    43.7730    -0.7510 c          1 UFJ       0.609100
     11 C11         66.0180    46.0290     0.2690 ca         1 UFJ      -0.002000
     12 C12         66.5970    47.2610    -0.0960 ca         1 UFJ      -0.156500
     13 C14         66.2730    48.1150     2.1590 ca         1 UFJ       0.165000
     14 C16         65.7000    46.8910     2.5370 ca         1 UFJ      -0.051000
     15 I15         66.4660    49.7140     3.6070 i          1 UFJ      -0.314000
     16 N10         65.9290    45.0230    -0.7320 ns         1 UFJ      -0.149000
     17 N19         67.3450    34.9980     0.1260 ns         1 UFJ      -0.386400
     18 O01         67.8350    36.2610     1.9780 o          1 UFJ      -0.565100
     19 O18         64.6620    43.3130     0.1730 o          1 UFJ      -0.572100
     20 O20         66.7520    33.9080     0.8710 oh         1 UFJ      -0.427100
     21 H1          67.1690    49.2490     0.5530 ha         1 UFJ       0.127500
     22 H2          65.1340    44.9140     1.9290 ha         1 UFJ       0.131500
     23 H3          68.1910    36.9640    -1.2070 hc         1 UFJ       0.058700
     24 H4          69.0450    37.7670     0.1500 hc         1 UFJ       0.058700
     25 H5          66.9010    38.8120     0.8740 hc         1 UFJ       0.057200
     26 H6          66.0460    38.0060    -0.4410 hc         1 UFJ       0.057200
     27 H7          67.4500    39.2490    -2.1160 hc         1 UFJ       0.036700
     28 H8          68.3060    40.0540    -0.8000 hc         1 UFJ       0.036700
     29 H9          66.1550    41.0920    -0.0360 hc         1 UFJ       0.052200
     30 H10         66.7570    41.5220    -3.0150 hc         1 UFJ       0.041700
     31 H11         65.7990    43.7130    -2.8600 hc         1 UFJ       0.070200
     32 H12         64.5480    42.5380    -2.3430 hc         1 UFJ       0.070200
     33 H13         66.9510    47.4170    -1.1130 ha         1 UFJ       0.131500
     34 H14         65.3560    46.7500     3.5580 ha         1 UFJ       0.127500
     35 H15         66.4070    45.2610    -1.5910 hn         1 UFJ       0.150000
     36 H16         67.1520    35.0160    -0.8750 hn         1 UFJ       0.329500
     37 H17         67.2600    33.1170     0.5710 ho         1 UFJ       0.446000
     38 H18         65.2970    40.2970    -1.3570 hc         1 UFJ       0.052200
     39 H19         67.5440    42.3690    -1.6900 hc         1 UFJ       0.041700
@<TRIPOS>BOND
     1     1    12 ar  
     2     1    13 ar  
     3     1    21 1   
     4     2    11 ar  
     5     2    14 ar  
     6     2    22 1   
     7     3     4 1   
     8     3    17 1   
     9     3    18 2   
    10     4     5 1   
    11     4    23 1   
    12     4    24 1   
    13     5     6 1   
    14     5    25 1   
    15     5    26 1   
    16     6     7 1   
    17     6    27 1   
    18     6    28 1   
    19     7     8 1   
    20     7    29 1   
    21     7    38 1   
    22     8     9 1   
    23     8    30 1   
    24     8    39 1   
    25     9    10 1   
    26     9    31 1   
    27     9    32 1   
    28    10    16 1   
    29    10    19 2   
    30    11    12 ar  
    31    11    16 1   
    32    12    33 1   
    33    13    14 ar  
    34    13    15 1   
    35    14    34 1   
    36    16    35 1   
    37    17    20 1   
    38    17    36 1   
    39    20    37 1   
@<TRIPOS>SUBSTRUCTURE
     1 UFJ         1 TEMP              0 ****  ****    0 ROOT
