@<TRIPOS>MOLECULE
UFK
   99   108     1     0     0
SMALL
bcc


@<TRIPOS>ATOM
      1 CBX         -6.4570   -14.0660    -9.5780 ca         1 UFK      -0.083000
      2 CBY         -5.8160   -12.9510    -9.0590 ca         1 UFK       0.111100
      3 OCD         -5.0130   -12.2290    -9.8690 oh         1 UFK      -0.493100
      4 CBZ         -6.0120   -12.5980    -7.7190 ca         1 UFK       0.054100
      5 OCC         -5.3590   -11.4960    -7.2910 oh         1 UFK      -0.518100
      6 CCA         -6.8400   -13.3740    -6.9250 ca         1 UFK      -0.190000
      7 CCB         -7.4850   -14.4840    -7.4530 ca         1 UFK      -0.104000
      8 CBW         -7.3020   -14.8330    -8.7840 ca         1 UFK      -0.061300
      9 CBU         -7.9920   -16.0690    -9.3160 c6         1 UFK       0.426900
     10 CBT         -7.3260   -17.3550    -8.8310 c6         1 UFK       0.100100
     11 OCK         -6.0140   -17.3330    -9.3030 oh         1 UFK      -0.565800
     12 OBP         -9.3290   -16.0050    -8.8730 os         1 UFK      -0.329900
     13 OBV         -7.9730   -16.0070   -10.7150 os         1 UFK      -0.313900
     14 CBQ         -8.0800   -17.1380   -11.4610 ca         1 UFK       0.230100
     15 CCE         -8.0540   -16.9460   -12.8340 ca         1 UFK      -0.231000
     16 CCF         -8.1450   -18.0580   -13.6630 ca         1 UFK       0.203100
     17 OCI         -8.1120   -17.8410   -14.9920 oh         1 UFK      -0.492100
     18 CCG         -8.2720   -19.3330   -13.1230 ca         1 UFK      -0.302000
     19 CCH         -8.2960   -19.4940   -11.7410 ca         1 UFK       0.236100
     20 OCJ         -8.4020   -20.7560   -11.2870 oh         1 UFK      -0.511100
     21 CBR         -8.1900   -18.3990   -10.8810 ca         1 UFK      -0.274300
     22 CBS         -8.1550   -18.5150    -9.3790 c6         1 UFK       0.031900
     23 CBB         -9.5220   -18.3980    -8.7580 ca         1 UFK      -0.227300
     24 CBA        -10.0150   -17.1240    -8.5210 ca         1 UFK       0.212100
     25 CAZ        -11.2290   -16.9130    -7.8860 ca         1 UFK      -0.227000
     26 CAY        -11.9780   -18.0140    -7.4980 ca         1 UFK       0.211100
     27 OBC        -13.1460   -17.7610    -6.8700 oh         1 UFK      -0.500100
     28 CAT        -11.5420   -19.3170    -7.7490 ca         1 UFK      -0.252300
     29 CAU        -10.3090   -19.4810    -8.3680 ca         1 UFK       0.242100
     30 OAV         -9.7980   -20.7100    -8.6270 os         1 UFK      -0.337900
     31 CAW        -10.3780   -21.8300    -7.9540 c6         1 UFK       0.211400
     32 CBG         -9.7470   -23.0840    -8.4860 ca         1 UFK      -0.104300
     33 CBH         -9.1780   -23.9730    -7.5740 ca         1 UFK      -0.177000
     34 CBI         -8.6080   -25.1650    -7.9900 ca         1 UFK       0.032100
     35 OBM         -8.0520   -26.0710    -7.1540 oh         1 UFK      -0.519100
     36 CBJ         -8.5810   -25.4820    -9.3540 ca         1 UFK       0.133100
     37 OBN         -8.0310   -26.6270    -9.8080 oh         1 UFK      -0.492100
     38 CBK         -9.1340   -24.5920   -10.2620 ca         1 UFK      -0.145000
     39 CBL         -9.7200   -23.4080    -9.8370 ca         1 UFK      -0.073000
     40 CAX        -11.8920   -21.7710    -8.0730 c6         1 UFK       0.136100
     41 OBD        -12.2220   -21.7630    -9.4360 oh         1 UFK      -0.579800
     42 CAS        -12.3980   -20.4970    -7.3690 c6         1 UFK       0.035900
     43 CAP        -12.6080   -20.6890    -5.8760 ca         1 UFK      -0.218300
     44 CAK        -11.6700   -20.3740    -4.8800 ca         1 UFK       0.247100
     45 OAL        -10.4750   -19.9250    -5.3100 os         1 UFK      -0.299900
     46 CAO        -13.8310   -21.2210    -5.4420 ca         1 UFK       0.206100
     47 OBO        -14.7200   -21.5710    -6.3920 oh         1 UFK      -0.497100
     48 CAN        -14.1300   -21.3710    -4.0960 ca         1 UFK      -0.300000
     49 CAM        -13.1880   -21.0100    -3.1440 ca         1 UFK       0.231100
     50 OAR        -13.5510   -21.1700    -1.8580 oh         1 UFK      -0.491100
     51 CAJ        -11.9330   -20.5250    -3.5160 ca         1 UFK      -0.295300
     52 CAI        -10.8830   -20.1870    -2.4930 c6         1 UFK      -0.055100
     53 CAH         -9.4970   -20.1910    -3.1190 c6         1 UFK       0.120100
     54 OAQ         -9.0750   -21.4810    -3.4750 oh         1 UFK      -0.581800
     55 CAG         -9.5600   -19.3520    -4.3880 c6         1 UFK       0.214400
     56 CAE         -8.2260   -19.2060    -5.0650 ca         1 UFK      -0.084300
     57 CAF         -7.7110   -20.2050    -5.8860 ca         1 UFK      -0.127000
     58 CAA         -6.4530   -20.0810    -6.4470 ca         1 UFK       0.037100
     59 OBE         -5.9070   -21.0020    -7.2760 oh         1 UFK      -0.520100
     60 CAB         -5.6680   -18.9540    -6.1730 ca         1 UFK       0.117100
     61 OBF         -4.4400   -18.7990    -6.7200 oh         1 UFK      -0.496100
     62 CAC         -6.1790   -17.9600    -5.3560 ca         1 UFK      -0.142000
     63 CAD         -7.4540   -18.0810    -4.8150 ca         1 UFK      -0.119000
     64 H1          -6.2860   -14.3150   -10.6170 ha         1 UFK       0.171000
     65 H2          -4.6390   -11.4790    -9.3910 ho         1 UFK       0.440000
     66 H3          -5.5520   -11.3160    -6.3640 ho         1 UFK       0.434000
     67 H4          -6.9910   -13.1080    -5.8850 ha         1 UFK       0.128000
     68 H5          -8.1280   -15.0680    -6.8070 ha         1 UFK       0.137000
     69 H6          -7.3720   -17.3750    -7.7350 h1         1 UFK       0.059700
     70 H7          -5.5330   -18.0690    -8.9110 ho         1 UFK       0.416000
     71 H8          -7.9580   -15.9510   -13.2480 ha         1 UFK       0.164000
     72 H9          -8.1770   -18.6750   -15.4720 ho         1 UFK       0.427000
     73 H10         -8.3580   -20.2040   -13.7640 ha         1 UFK       0.146000
     74 H11         -8.6610   -20.7860   -10.3550 ho         1 UFK       0.452000
     75 H12         -7.6740   -19.4460    -9.0660 hc         1 UFK       0.072700
     76 H13        -11.5780   -15.9090    -7.6820 ha         1 UFK       0.165000
     77 H14        -13.4760   -18.5480    -6.4200 ho         1 UFK       0.434000
     78 H15        -10.1420   -21.7600    -6.8890 h1         1 UFK       0.066700
     79 H16         -9.1800   -23.7320    -6.5150 ha         1 UFK       0.130000
     80 H17         -8.1160   -25.7820    -6.2370 ho         1 UFK       0.434000
     81 H18         -7.6860   -27.1520    -9.0760 ho         1 UFK       0.443000
     82 H19         -9.1100   -24.8380   -11.3160 ha         1 UFK       0.155000
     83 H20        -10.1550   -22.7500   -10.5740 ha         1 UFK       0.166000
     84 H21        -12.3010   -22.6480    -7.5560 h1         1 UFK       0.053700
     85 H22        -13.1780   -21.8270    -9.5210 ho         1 UFK       0.411000
     86 H23        -13.3930   -20.3140    -7.7920 hc         1 UFK       0.070700
     87 H24        -15.5420   -21.8790    -5.9920 ho         1 UFK       0.438000
     88 H25        -15.0910   -21.7640    -3.7830 ha         1 UFK       0.155000
     89 H26        -12.8670   -20.8660    -1.2520 ho         1 UFK       0.432000
     90 H27        -11.0660   -19.2020    -2.0500 hc         1 UFK       0.050200
     91 H28        -10.8850   -20.8980    -1.6580 hc         1 UFK       0.050200
     92 H29         -8.7930   -19.7060    -2.4310 h1         1 UFK       0.050700
     93 H30         -9.0460   -22.0240    -2.6800 ho         1 UFK       0.407000
     94 H31         -9.9160   -18.3540    -4.0990 h1         1 UFK       0.062700
     95 H32         -8.2840   -21.0990    -6.0920 ha         1 UFK       0.149000
     96 H33         -6.5020   -21.7520    -7.3960 ho         1 UFK       0.445000
     97 H34         -4.1590   -19.6110    -7.1570 ho         1 UFK       0.445000
     98 H35         -5.5820   -17.0790    -5.1570 ha         1 UFK       0.156000
     99 H36         -7.8390   -17.2850    -4.1870 ha         1 UFK       0.134000
@<TRIPOS>BOND
     1     1     2 ar  
     2     1     8 ar  
     3     1    64 1   
     4     2     3 1   
     5     2     4 ar  
     6     3    65 1   
     7     4     5 1   
     8     4     6 ar  
     9     5    66 1   
    10     6     7 ar  
    11     6    67 1   
    12     7     8 ar  
    13     7    68 1   
    14     8     9 1   
    15     9    10 1   
    16     9    12 1   
    17     9    13 1   
    18    10    11 1   
    19    10    22 1   
    20    10    69 1   
    21    11    70 1   
    22    12    24 1   
    23    13    14 1   
    24    14    15 ar  
    25    14    21 ar  
    26    15    16 ar  
    27    15    71 1   
    28    16    17 1   
    29    16    18 ar  
    30    17    72 1   
    31    18    19 ar  
    32    18    73 1   
    33    19    20 1   
    34    19    21 ar  
    35    20    74 1   
    36    21    22 1   
    37    22    23 1   
    38    22    75 1   
    39    23    24 ar  
    40    23    29 ar  
    41    24    25 ar  
    42    25    26 ar  
    43    25    76 1   
    44    26    27 1   
    45    26    28 ar  
    46    27    77 1   
    47    28    29 ar  
    48    28    42 1   
    49    29    30 1   
    50    30    31 1   
    51    31    32 1   
    52    31    40 1   
    53    31    78 1   
    54    32    33 ar  
    55    32    39 ar  
    56    33    34 ar  
    57    33    79 1   
    58    34    35 1   
    59    34    36 ar  
    60    35    80 1   
    61    36    37 1   
    62    36    38 ar  
    63    37    81 1   
    64    38    39 ar  
    65    38    82 1   
    66    39    83 1   
    67    40    41 1   
    68    40    42 1   
    69    40    84 1   
    70    41    85 1   
    71    42    43 1   
    72    42    86 1   
    73    43    44 ar  
    74    43    46 ar  
    75    44    45 1   
    76    44    51 ar  
    77    45    55 1   
    78    46    47 1   
    79    46    48 ar  
    80    47    87 1   
    81    48    49 ar  
    82    48    88 1   
    83    49    50 1   
    84    49    51 ar  
    85    50    89 1   
    86    51    52 1   
    87    52    53 1   
    88    52    90 1   
    89    52    91 1   
    90    53    54 1   
    91    53    55 1   
    92    53    92 1   
    93    54    93 1   
    94    55    56 1   
    95    55    94 1   
    96    56    57 ar  
    97    56    63 ar  
    98    57    58 ar  
    99    57    95 1   
   100    58    59 1   
   101    58    60 ar  
   102    59    96 1   
   103    60    61 1   
   104    60    62 ar  
   105    61    97 1   
   106    62    63 ar  
   107    62    98 1   
   108    63    99 1   
@<TRIPOS>SUBSTRUCTURE
     1 UFK         1 TEMP              0 ****  ****    0 ROOT
