@<TRIPOS>MOLECULE
UFK
   99   108     1     0     0
SMALL
No Charge or Current Charge


@<TRIPOS>ATOM
      1 CBX         -6.3560   -13.9550    -9.5710 ca         1 UFK      -0.065000
      2 CBY         -5.6740   -12.8540    -9.0280 ca         1 UFK       0.111100
      3 OCD         -4.8840   -12.0730    -9.8220 oh         1 UFK      -0.532100
      4 CBZ         -5.7940   -12.5470    -7.6590 ca         1 UFK       0.054100
      5 OCC         -5.1250   -11.4720    -7.1350 oh         1 UFK      -0.557100
      6 CCA         -6.5970   -13.3470    -6.8330 ca         1 UFK      -0.172000
      7 CCB         -7.2820   -14.4490    -7.3750 ca         1 UFK      -0.086000
      8 CBW         -7.1770   -14.7630    -8.7500 ca         1 UFK      -0.061300
      9 CBU         -7.9270   -15.9950    -9.3080 c6         1 UFK       0.473300
     10 CBT         -7.2420   -17.3150    -8.8310 c6         1 UFK       0.123300
     11 OCK         -5.8660   -17.4510    -9.2640 oh         1 UFK      -0.628000
     12 OBP         -9.2890   -15.9080    -8.8150 os         1 UFK      -0.353100
     13 OBV         -7.9530   -15.9230   -10.7540 os         1 UFK      -0.337100
     14 CBQ         -8.1750   -17.0600   -11.5010 ca         1 UFK       0.230100
     15 CCE         -8.2850   -16.9210   -12.8900 ca         1 UFK      -0.213000
     16 CCF         -8.4900   -18.0450   -13.6930 ca         1 UFK       0.203100
     17 OCI         -8.5950   -17.9030   -15.0410 oh         1 UFK      -0.531100
     18 CCG         -8.5930   -19.3130   -13.1120 ca         1 UFK      -0.284000
     19 CCH         -8.4860   -19.4570   -11.7250 ca         1 UFK       0.236100
     20 OCJ         -8.6220   -20.6950   -11.1900 oh         1 UFK      -0.550100
     21 CBR         -8.2580   -18.3380   -10.9030 ca         1 UFK      -0.274300
     22 CBS         -8.1150   -18.4610    -9.3800 c6         1 UFK       0.031900
     23 CBB         -9.5060   -18.3350    -8.7650 ca         1 UFK      -0.227300
     24 CBA        -10.0230   -17.0440    -8.5400 ca         1 UFK       0.212100
     25 CAZ        -11.2880   -16.8830    -7.9720 ca         1 UFK      -0.209000
     26 CAY        -12.0530   -17.9980    -7.6270 ca         1 UFK       0.211100
     27 OBC        -13.2700   -17.8010    -7.0520 oh         1 UFK      -0.539100
     28 CAT        -11.5690   -19.3000    -7.8550 ca         1 UFK      -0.252300
     29 CAU        -10.2790   -19.4630    -8.4230 ca         1 UFK       0.242100
     30 OAV         -9.7550   -20.7220    -8.6560 os         1 UFK      -0.361100
     31 CAW        -10.3480   -21.8540    -7.9790 c6         1 UFK       0.234600
     32 CBG         -9.6600   -23.1490    -8.4450 ca         1 UFK      -0.104300
     33 CBH         -9.0290   -23.9820    -7.4950 ca         1 UFK      -0.159000
     34 CBI         -8.3890   -25.1650    -7.9020 ca         1 UFK       0.032100
     35 OBM         -7.7810   -25.9720    -6.9760 oh         1 UFK      -0.558100
     36 CBJ         -8.3730   -25.5220    -9.2650 ca         1 UFK       0.133100
     37 OBN         -7.7490   -26.6710    -9.6490 oh         1 UFK      -0.531100
     38 CBK         -8.9970   -24.7010   -10.2160 ca         1 UFK      -0.127000
     39 CBL         -9.6390   -23.5180    -9.8080 ca         1 UFK      -0.055000
     40 CAX        -11.8960   -21.8410    -8.1270 c6         1 UFK       0.159300
     41 OBD        -12.3140   -21.9210    -9.5080 oh         1 UFK      -0.642000
     42 CAS        -12.4340   -20.5260    -7.4910 c6         1 UFK       0.035900
     43 CAP        -12.7080   -20.6760    -5.9630 ca         1 UFK      -0.218300
     44 CAK        -11.7270   -20.3900    -4.9720 ca         1 UFK       0.247100
     45 OAL        -10.4690   -19.9730    -5.3660 os         1 UFK      -0.323100
     46 CAO        -13.9760   -21.1270    -5.5330 ca         1 UFK       0.206100
     47 OBO        -14.9510   -21.4370    -6.4330 oh         1 UFK      -0.536100
     48 CAN        -14.2690   -21.2620    -4.1760 ca         1 UFK      -0.282000
     49 CAM        -13.3050   -20.9760    -3.2130 ca         1 UFK       0.231100
     50 OAR        -13.6380   -21.1160    -1.9040 oh         1 UFK      -0.530100
     51 CAJ        -12.0190   -20.5570    -3.5910 ca         1 UFK      -0.295300
     52 CAI        -10.9320   -20.2930    -2.5250 c6         1 UFK      -0.055100
     53 CAH         -9.5090   -20.3110    -3.1220 c6         1 UFK       0.143300
     54 OAQ         -9.1170   -21.6740    -3.3920 oh         1 UFK      -0.644000
     55 CAG         -9.5420   -19.4330    -4.4030 c6         1 UFK       0.237600
     56 CAE         -8.1640   -19.2640    -5.0690 ca         1 UFK      -0.084300
     57 CAF         -7.6010   -20.3040    -5.8400 ca         1 UFK      -0.109000
     58 CAA         -6.3450   -20.1410    -6.4490 ca         1 UFK       0.037100
     59 OBE         -5.8050   -21.1460    -7.2090 oh         1 UFK      -0.559100
     60 CAB         -5.6410   -18.9340    -6.2840 ca         1 UFK       0.117100
     61 OBF         -4.4420   -18.7720    -6.9110 oh         1 UFK      -0.535100
     62 CAC         -6.1820   -17.9000    -5.5040 ca         1 UFK      -0.124000
     63 CAD         -7.4440   -18.0620    -4.9030 ca         1 UFK      -0.101000
     64 H1          -6.2340   -14.1740   -10.6280 ha         1 UFK       0.153000
     65 H2          -4.5140   -11.3770    -9.2330 ho         1 UFK       0.479000
     66 H3          -5.3260   -11.4120    -6.1750 ho         1 UFK       0.473000
     67 H4          -6.6960   -13.1240    -5.7730 ha         1 UFK       0.110000
     68 H5          -7.8990   -15.0630    -6.7210 ha         1 UFK       0.119000
     69 H6          -7.2940   -17.3350    -7.7360 h1         1 UFK       0.059700
     70 H7          -5.3710   -17.8550    -8.5140 ho         1 UFK       0.455000
     71 H8          -8.2080   -15.9370   -13.3420 ha         1 UFK       0.146000
     72 H9          -8.7350   -18.7920   -15.4300 ho         1 UFK       0.466000
     73 H10         -8.7640   -20.1910   -13.7290 ha         1 UFK       0.128000
     74 H11         -8.8990   -20.5800   -10.2520 ho         1 UFK       0.491000
     75 H12         -7.6410   -19.4110    -9.0970 hc         1 UFK       0.072700
     76 H13        -11.6710   -15.8840    -7.7860 ha         1 UFK       0.147000
     77 H14        -13.5810   -18.6740    -6.7350 ho         1 UFK       0.473000
     78 H15        -10.1280   -21.7520    -6.9120 h1         1 UFK       0.066700
     79 H16         -9.0420   -23.7080    -6.4420 ha         1 UFK       0.112000
     80 H17         -7.9070   -25.5830    -6.0820 ho         1 UFK       0.473000
     81 H18         -7.3960   -27.0700    -8.8220 ho         1 UFK       0.482000
     82 H19         -8.9840   -24.9790   -11.2660 ha         1 UFK       0.137000
     83 H20        -10.1190   -22.8910   -10.5540 ha         1 UFK       0.148000
     84 H21        -12.3060   -22.6960    -7.5690 h1         1 UFK       0.053700
     85 H22        -13.2910   -22.0050    -9.5040 ho         1 UFK       0.450000
     86 H23        -13.3980   -20.3360    -7.9810 hc         1 UFK       0.070700
     87 H24        -15.7380   -21.7440    -5.9360 ho         1 UFK       0.477000
     88 H25        -15.2510   -21.5960    -3.8550 ha         1 UFK       0.137000
     89 H26        -12.8710   -20.8240    -1.3730 ho         1 UFK       0.471000
     90 H27        -11.1140   -19.3110    -2.0670 hc         1 UFK       0.050200
     91 H28        -10.9860   -21.0270    -1.7090 hc         1 UFK       0.050200
     92 H29         -8.8140   -19.8590    -2.3980 h1         1 UFK       0.050700
     93 H30         -9.2120   -22.1700    -2.5500 ho         1 UFK       0.446000
     94 H31         -9.9110   -18.4360    -4.1210 h1         1 UFK       0.062700
     95 H32         -8.1420   -21.2380    -5.9570 ha         1 UFK       0.131000
     96 H33         -6.4210   -21.9110    -7.2170 ho         1 UFK       0.484000
     97 H34         -4.2020   -19.6610    -7.2630 ho         1 UFK       0.484000
     98 H35         -5.6320   -16.9700    -5.3780 ha         1 UFK       0.138000
     99 H36         -7.8600   -17.2520    -4.3070 ha         1 UFK       0.116000
@<TRIPOS>BOND
     1     1     2 ar  
     2     1     8 ar  
     3     1    64 1   
     4     2     3 1   
     5     2     4 ar  
     6     3    65 1   
     7     4     5 1   
     8     4     6 ar  
     9     5    66 1   
    10     6     7 ar  
    11     6    67 1   
    12     7     8 ar  
    13     7    68 1   
    14     8     9 1   
    15     9    10 1   
    16     9    12 1   
    17     9    13 1   
    18    10    11 1   
    19    10    22 1   
    20    10    69 1   
    21    11    70 1   
    22    12    24 1   
    23    13    14 1   
    24    14    15 ar  
    25    14    21 ar  
    26    15    16 ar  
    27    15    71 1   
    28    16    17 1   
    29    16    18 ar  
    30    17    72 1   
    31    18    19 ar  
    32    18    73 1   
    33    19    20 1   
    34    19    21 ar  
    35    20    74 1   
    36    21    22 1   
    37    22    23 1   
    38    22    75 1   
    39    23    24 ar  
    40    23    29 ar  
    41    24    25 ar  
    42    25    26 ar  
    43    25    76 1   
    44    26    27 1   
    45    26    28 ar  
    46    27    77 1   
    47    28    29 ar  
    48    28    42 1   
    49    29    30 1   
    50    30    31 1   
    51    31    32 1   
    52    31    40 1   
    53    31    78 1   
    54    32    33 ar  
    55    32    39 ar  
    56    33    34 ar  
    57    33    79 1   
    58    34    35 1   
    59    34    36 ar  
    60    35    80 1   
    61    36    37 1   
    62    36    38 ar  
    63    37    81 1   
    64    38    39 ar  
    65    38    82 1   
    66    39    83 1   
    67    40    41 1   
    68    40    42 1   
    69    40    84 1   
    70    41    85 1   
    71    42    43 1   
    72    42    86 1   
    73    43    44 ar  
    74    43    46 ar  
    75    44    45 1   
    76    44    51 ar  
    77    45    55 1   
    78    46    47 1   
    79    46    48 ar  
    80    47    87 1   
    81    48    49 ar  
    82    48    88 1   
    83    49    50 1   
    84    49    51 ar  
    85    50    89 1   
    86    51    52 1   
    87    52    53 1   
    88    52    90 1   
    89    52    91 1   
    90    53    54 1   
    91    53    55 1   
    92    53    92 1   
    93    54    93 1   
    94    55    56 1   
    95    55    94 1   
    96    56    57 ar  
    97    56    63 ar  
    98    57    58 ar  
    99    57    95 1   
   100    58    59 1   
   101    58    60 ar  
   102    59    96 1   
   103    60    61 1   
   104    60    62 ar  
   105    61    97 1   
   106    62    63 ar  
   107    62    98 1   
   108    63    99 1   
@<TRIPOS>SUBSTRUCTURE
     1 UFK         1 TEMP              0 ****  ****    0 ROOT
