@<TRIPOS>MOLECULE
UFM
   58    60     1     0     0
SMALL
bcc


@<TRIPOS>ATOM
      1 N1           0.0500    -1.6320     4.7380 n          1 UFM      -0.374000
      2 C2           1.1360    -0.8660     4.3480 c          1 UFM       0.820500
      3 N3           2.3460    -1.5040     4.4380 ns         1 UFM      -0.606500
      4 C4           2.6100    -2.7940     4.8700 c          1 UFM       0.740700
      5 C5           1.4240    -3.5190     5.2530 cc         1 UFM      -0.368200
      6 C6           0.2270    -2.9190     5.1650 cd         1 UFM       0.083600
      7 O2           1.0440     0.2780     3.9620 o          1 UFM      -0.566500
      8 O4           3.7500    -3.2190     4.8970 o          1 UFM      -0.641500
      9 C1D         -1.3040    -1.0970     4.6760 c5         1 UFM       0.326500
     10 C2D         -1.5760     0.1530     5.5100 c5         1 UFM       0.045100
     11 O2D         -1.7990    -0.2130     6.8420 oh         1 UFM      -0.606800
     12 C3D         -2.8120     0.7020     4.7880 c5         1 UFM       0.080100
     13 C4D         -2.4990     0.3680     3.3330 c5         1 UFM       0.139100
     14 O4D         -1.6500    -0.7850     3.3630 os         1 UFM      -0.355600
     15 O3D         -3.9680     0.0010     5.1710 oh         1 UFM      -0.591800
     16 C5D         -1.8360     1.5140     2.5970 c3         1 UFM       0.199400
     17 O5D         -1.5310     1.0860     1.2890 os         1 UFM      -0.537200
     18 PA          -1.2370     2.2520     0.1620 p5         1 UFM       1.452800
     19 O1A         -2.5330     2.8650    -0.2730 o          1 UFM      -0.849000
     20 O2A         -0.1120     3.1200     0.6310 o          1 UFM      -0.849000
     21 O3A         -0.7050     1.1830    -0.9600 os         1 UFM      -0.694800
     22 PB          -0.9240     1.3870    -2.5810 p5         1 UFM       1.465800
     23 O1B         -2.2420     0.8200    -2.9970 o          1 UFM      -0.838000
     24 O2B         -0.5010     2.7650    -2.9640 o          1 UFM      -0.838000
     25 O3B          0.2750     0.3160    -2.9790 os         1 UFM      -0.577200
     26 C1           0.1260    -0.5450    -4.0680 c6         1 UFM       0.377900
     27 C7           1.3250    -1.5000    -4.0510 c6         1 UFM       0.082100
     28 C3           2.5870    -0.7130    -4.3860 c6         1 UFM       0.118100
     29 C8           2.4180     0.0350    -5.7020 c6         1 UFM       0.118100
     30 C9           1.1610     0.9080    -5.6490 c6         1 UFM       0.152100
     31 C10          0.8680     1.5120    -7.0070 c3         1 UFM       0.150400
     32 O7           1.1630    -2.5140    -5.0100 oh         1 UFM      -0.606800
     33 O3           3.7250    -1.5350    -4.5080 oh         1 UFM      -0.622800
     34 O8           3.5200     0.8780    -5.9480 oh         1 UFM      -0.606800
     35 O5           0.0340     0.1320    -5.2830 os         1 UFM      -0.415600
     36 O6          -0.2250     2.3920    -6.9050 oh         1 UFM      -0.544800
     37 HN3          3.1430    -0.9440     4.1600 hn         1 UFM       0.340500
     38 H5           1.5040    -4.5370     5.5990 ha         1 UFM       0.156000
     39 H6          -0.6790    -3.4430     5.4360 h4         1 UFM       0.147000
     40 H1D         -1.9350    -1.9070     5.0610 h2         1 UFM       0.052700
     41 H2D         -0.7580     0.8710     5.4190 h1         1 UFM       0.090700
     42 HO2         -1.6130     0.5430     7.4070 ho         1 UFM       0.406000
     43 H3D         -2.9280     1.7820     4.9450 h1         1 UFM       0.060700
     44 H4D         -3.4200     0.1020     2.8040 h1         1 UFM       0.100700
     45 HO3         -3.9620    -0.0690     6.1330 ho         1 UFM       0.398000
     46 H5'1        -0.9360     1.8460     3.1210 h1         1 UFM       0.021200
     47 H5'2        -2.5450     2.3520     2.5940 h1         1 UFM       0.021200
     48 H1          -0.8080    -1.1140    -3.9890 h2         1 UFM       0.079700
     49 H2           1.4130    -1.9210    -3.0400 h1         1 UFM       0.049700
     50 H3           2.7330     0.0340    -3.5950 h1         1 UFM       0.088700
     51 H4           2.3000    -0.6980    -6.5140 h1         1 UFM       0.041700
     52 H7           1.3170     1.7170    -4.9230 h1         1 UFM       0.110700
     53 H6'1         0.6720     0.6990    -7.7200 h1         1 UFM       0.005200
     54 H6'2         1.7700     2.0290    -7.3540 h1         1 UFM       0.005200
     55 HO2A         0.4160    -3.0610    -4.7490 ho         1 UFM       0.393000
     56 HO3A         4.0720    -1.7150    -3.6300 ho         1 UFM       0.398000
     57 HO4          4.3150     0.3360    -5.9110 ho         1 UFM       0.399000
     58 HO6         -0.3280     2.8260    -7.7570 ho         1 UFM       0.370000
@<TRIPOS>BOND
     1     1     2 1   
     2     1     6 1   
     3     1     9 1   
     4     2     3 1   
     5     2     7 2   
     6     3     4 1   
     7     3    37 1   
     8     4     5 1   
     9     4     8 2   
    10     5     6 2   
    11     5    38 1   
    12     6    39 1   
    13     9    10 1   
    14     9    14 1   
    15     9    40 1   
    16    10    11 1   
    17    10    12 1   
    18    10    41 1   
    19    11    42 1   
    20    12    13 1   
    21    12    15 1   
    22    12    43 1   
    23    13    14 1   
    24    13    16 1   
    25    13    44 1   
    26    15    45 1   
    27    16    17 1   
    28    16    46 1   
    29    16    47 1   
    30    17    18 1   
    31    18    19 1   
    32    18    20 1   
    33    18    21 1   
    34    21    22 1   
    35    22    23 1   
    36    22    24 1   
    37    22    25 1   
    38    25    26 1   
    39    26    27 1   
    40    26    35 1   
    41    26    48 1   
    42    27    28 1   
    43    27    32 1   
    44    27    49 1   
    45    28    29 1   
    46    28    33 1   
    47    28    50 1   
    48    29    30 1   
    49    29    34 1   
    50    29    51 1   
    51    30    31 1   
    52    30    35 1   
    53    30    52 1   
    54    31    36 1   
    55    31    53 1   
    56    31    54 1   
    57    32    55 1   
    58    33    56 1   
    59    34    57 1   
    60    36    58 1   
@<TRIPOS>SUBSTRUCTURE
     1 UFM         1 TEMP              0 ****  ****    0 ROOT
