@<TRIPOS>MOLECULE
UFM
   58    60     1     0     0
SMALL
No Charge or Current Charge


@<TRIPOS>ATOM
      1 N1           0.5450    -1.6520     2.5820 n          1 UFM      -0.307000
      2 C2           1.7610    -0.9990     2.8950 c          1 UFM       0.611000
      3 N3           2.8620    -1.7980     2.9760 ns         1 UFM      -0.472500
      4 C4           2.9440    -3.1380     2.7970 c          1 UFM       0.598200
      5 C5           1.6640    -3.7620     2.4880 cc         1 UFM      -0.418200
      6 C6           0.5050    -3.0300     2.3830 cd         1 UFM       0.033600
      7 O2           1.8610     0.1940     3.1300 o          1 UFM      -0.491000
      8 O4           3.9950    -3.7450     2.8960 o          1 UFM      -0.566000
      9 C1D         -0.6960    -0.8660     2.3530 c5         1 UFM       0.349700
     10 C2D         -1.2610    -0.3950     3.7300 c5         1 UFM       0.068300
     11 O2D         -1.9280    -1.4210     4.5020 oh         1 UFM      -0.729000
     12 C3D         -2.2750     0.6580     3.1990 c5         1 UFM       0.103300
     13 C4D         -1.4700     1.3180     2.0140 c5         1 UFM       0.162300
     14 O4D         -0.4820     0.3350     1.6020 os         1 UFM      -0.402000
     15 O3D         -3.4610    -0.0200     2.7700 oh         1 UFM      -0.714000
     16 C5D         -0.7330     2.6270     2.4340 c3         1 UFM       0.222600
     17 O5D         -0.0850     3.2890     1.3280 os         1 UFM      -0.560400
     18 PA          -0.8900     3.8060     0.0280 p5         1 UFM       1.452800
     19 O1A         -2.3020     4.1040     0.4090 o          1 UFM      -0.849000
     20 O2A         -0.1800     4.9950    -0.5340 o          1 UFM      -0.849000
     21 O3A         -0.6940     2.5230    -0.8660 os         1 UFM      -0.694800
     22 PB          -1.7340     2.4430    -2.0470 p5         1 UFM       1.465800
     23 O1B         -2.9570     1.6750    -1.6770 o          1 UFM      -0.838000
     24 O2B         -2.0510     3.7450    -2.7030 o          1 UFM      -0.838000
     25 O3B         -0.8290     1.5850    -3.0620 os         1 UFM      -0.600400
     26 C1          -0.9000     0.1570    -3.0200 c6         1 UFM       0.424300
     27 C7          -0.3000    -0.4960    -1.7100 c6         1 UFM       0.105300
     28 C3           1.2310    -0.2080    -1.6640 c6         1 UFM       0.141300
     29 C8           1.9240    -0.6750    -2.9820 c6         1 UFM       0.141300
     30 C9           1.2130    -0.0460    -4.2200 c6         1 UFM       0.175300
     31 C10          1.7980    -0.5790    -5.5700 c3         1 UFM       0.173600
     32 O7          -0.5070    -1.9360    -1.6460 oh         1 UFM      -0.729000
     33 O3           1.8190    -0.8960    -0.5450 oh         1 UFM      -0.685000
     34 O8           3.3270    -0.3490    -2.9300 oh         1 UFM      -0.729000
     35 O5          -0.2110    -0.3470    -4.1850 os         1 UFM      -0.462000
     36 O6           1.1260    -0.0600    -6.7320 oh         1 UFM      -0.667000
     37 HN3          3.7260    -1.3310     3.1990 hn         1 UFM       0.340500
     38 H5           1.6840    -4.8360     2.3400 ha         1 UFM       0.206000
     39 H6          -0.4750    -3.4410     2.1460 h4         1 UFM       0.197000
     40 H1D         -1.4150    -1.5060     1.8270 h2         1 UFM       0.052700
     41 H2D         -0.4800     0.1000     4.3250 h1         1 UFM       0.090700
     42 HO2         -1.2300    -1.9750     4.9290 ho         1 UFM       0.505000
     43 H3D         -2.5220     1.3950     3.9760 h1         1 UFM       0.060700
     44 H4D         -2.1480     1.5260     1.1770 h1         1 UFM       0.100700
     45 HO3         -3.4900    -0.8120     3.3630 ho         1 UFM       0.497000
     46 H5'1         0.0090     2.3810     3.2060 h1         1 UFM       0.021200
     47 H5'2        -1.4620     3.3050     2.8970 h1         1 UFM       0.021200
     48 H1          -1.9570    -0.1430    -3.0980 h2         1 UFM       0.079700
     49 H2          -0.7760    -0.0280    -0.8410 h1         1 UFM       0.049700
     50 H3           1.3740     0.8790    -1.5610 h1         1 UFM       0.088700
     51 H4           1.8110    -1.7670    -3.0570 h1         1 UFM       0.041700
     52 H7           1.3550     1.0450    -4.2020 h1         1 UFM       0.110700
     53 H6'1         1.7340    -1.6750    -5.5640 h1         1 UFM       0.005200
     54 H6'2         2.8630    -0.3150    -5.6160 h1         1 UFM       0.005200
     55 HO2A        -1.4780    -2.1010    -1.6940 ho         1 UFM       0.492000
     56 HO3A         1.2160    -1.6630    -0.4110 ho         1 UFM       0.437000
     57 HO4          3.5860    -0.5260    -1.9930 ho         1 UFM       0.498000
     58 HO6          1.5240    -0.5060    -7.5140 ho         1 UFM       0.469000
@<TRIPOS>BOND
     1     1     2 1   
     2     1     6 1   
     3     1     9 1   
     4     2     3 1   
     5     2     7 2   
     6     3     4 1   
     7     3    37 1   
     8     4     5 1   
     9     4     8 2   
    10     5     6 2   
    11     5    38 1   
    12     6    39 1   
    13     9    10 1   
    14     9    14 1   
    15     9    40 1   
    16    10    11 1   
    17    10    12 1   
    18    10    41 1   
    19    11    42 1   
    20    12    13 1   
    21    12    15 1   
    22    12    43 1   
    23    13    14 1   
    24    13    16 1   
    25    13    44 1   
    26    15    45 1   
    27    16    17 1   
    28    16    46 1   
    29    16    47 1   
    30    17    18 1   
    31    18    19 1   
    32    18    20 1   
    33    18    21 1   
    34    21    22 1   
    35    22    23 1   
    36    22    24 1   
    37    22    25 1   
    38    25    26 1   
    39    26    27 1   
    40    26    35 1   
    41    26    48 1   
    42    27    28 1   
    43    27    32 1   
    44    27    49 1   
    45    28    29 1   
    46    28    33 1   
    47    28    50 1   
    48    29    30 1   
    49    29    34 1   
    50    29    51 1   
    51    30    31 1   
    52    30    35 1   
    53    30    52 1   
    54    31    36 1   
    55    31    53 1   
    56    31    54 1   
    57    32    55 1   
    58    33    56 1   
    59    34    57 1   
    60    36    58 1   
@<TRIPOS>SUBSTRUCTURE
     1 UFM         1 TEMP              0 ****  ****    0 ROOT
