@<TRIPOS>MOLECULE
UFN
  101   110     1     0     0
SMALL
abcg2


@<TRIPOS>ATOM
      1 CBX         -6.6090   -14.6590    -7.7380 ca         1 UFN      -0.131000
      2 CBY         -5.7690   -13.6720    -7.2570 ca         1 UFN       0.035100
      3 OCD         -5.6140   -13.3870    -5.9440 oh         1 UFN      -0.559100
      4 CBZ         -5.0160   -12.8970    -8.1500 ca         1 UFN       0.136100
      5 OCC         -4.1800   -11.9310    -7.7200 oh         1 UFN      -0.533100
      6 CCA         -5.1320   -13.1380    -9.5090 ca         1 UFN      -0.134000
      7 CCB         -5.9720   -14.1370    -9.9890 ca         1 UFN      -0.047000
      8 CBW         -6.7160   -14.9030    -9.1070 ca         1 UFN      -0.072300
      9 CBU         -7.5800   -16.0560    -9.5550 c6         1 UFN       0.469300
     10 CBT         -6.9360   -17.4020    -9.2310 c6         1 UFN       0.122300
     11 OCK         -5.7050   -17.4450    -9.8840 oh         1 UFN      -0.625000
     12 OBP         -8.8130   -15.9280    -8.8720 os         1 UFN      -0.345100
     13 OBV         -7.8040   -15.9330   -10.9320 os         1 UFN      -0.341100
     14 CBQ         -8.0800   -17.0220   -11.7000 ca         1 UFN       0.227100
     15 CCE         -8.2800   -16.7650   -13.0470 ca         1 UFN      -0.214000
     16 CCF         -8.5850   -17.8300   -13.8890 ca         1 UFN       0.203100
     17 OCI         -8.7770   -17.5490   -15.1920 oh         1 UFN      -0.530100
     18 CCG         -8.6960   -19.1210   -13.3860 ca         1 UFN      -0.283000
     19 CCH         -8.4850   -19.3490   -12.0290 ca         1 UFN       0.239100
     20 OCJ         -8.6050   -20.6230   -11.6080 oh         1 UFN      -0.547100
     21 CBR         -8.1540   -18.3050   -11.1650 ca         1 UFN      -0.278300
     22 CBS         -7.9130   -18.4770    -9.6900 c6         1 UFN       0.021800
     23 CBB         -9.1830   -18.2740    -8.9110 ce         1 UFN      -0.202200
     24 CBA         -9.5370   -17.0330    -8.5690 c2         1 UFN       0.136900
     25 CAZ        -10.7410   -16.7560    -7.7320 c6         1 UFN      -0.032200
     26 CAY        -11.8270   -17.7970    -7.9620 c6         1 UFN       0.244500
     27 OBC        -12.7870   -17.5940    -6.9500 oh         1 UFN      -0.659000
     28 CAT        -11.2650   -19.2030    -7.9960 c2         1 UFN      -0.251400
     29 CAU        -10.0390   -19.3800    -8.4930 ce         1 UFN       0.191100
     30 OAV         -9.4470   -20.5950    -8.6560 os         1 UFN      -0.360100
     31 CAW        -10.0840   -21.6900    -8.0020 c6         1 UFN       0.226600
     32 CBG         -9.3450   -22.9440    -8.3710 ca         1 UFN      -0.100300
     33 CBH         -8.6850   -23.6360    -7.3560 ca         1 UFN      -0.156000
     34 CBI         -7.9540   -24.7820    -7.6220 ca         1 UFN       0.033100
     35 OBM         -7.2920   -25.4930    -6.6810 oh         1 UFN      -0.559100
     36 CBJ         -7.8610   -25.2580    -8.9350 ca         1 UFN       0.132100
     37 OBN         -7.1540   -26.3640    -9.2420 oh         1 UFN      -0.531100
     38 CBK         -8.5130   -24.5680    -9.9460 ca         1 UFN      -0.130000
     39 CBL         -9.2510   -23.4240    -9.6730 ca         1 UFN      -0.063000
     40 CAX        -11.5780   -21.6560    -8.2870 c6         1 UFN       0.152300
     41 OBD        -11.7610   -21.6900    -9.6780 oh         1 UFN      -0.647000
     42 CAS        -12.1580   -20.3640    -7.6660 c6         1 UFN       0.040800
     43 CAP        -12.5200   -20.5530    -6.2020 ca         1 UFN      -0.184300
     44 CAK        -11.6960   -20.2240    -5.1180 ca         1 UFN       0.253100
     45 OAL        -10.4770   -19.7350    -5.4200 os         1 UFN      -0.321100
     46 CAO        -13.7730   -21.0940    -5.8930 ca         1 UFN       0.199100
     47 OBO        -14.5700   -21.4390    -6.9270 oh         1 UFN      -0.542100
     48 CAN        -14.2030   -21.2580    -4.5830 ca         1 UFN      -0.279000
     49 CAM        -13.3610   -20.9030    -3.5400 ca         1 UFN       0.225100
     50 OAR        -13.8410   -21.0800    -2.2920 oh         1 UFN      -0.533100
     51 CAJ        -12.0820   -20.4030    -3.7850 ca         1 UFN      -0.292300
     52 CAI        -11.1350   -20.0790    -2.6600 c6         1 UFN      -0.054100
     53 CAH         -9.7000   -19.9990    -3.1610 c6         1 UFN       0.143300
     54 OAQ         -9.1850   -21.2550    -3.5210 oh         1 UFN      -0.645000
     55 CAG         -9.7030   -19.1220    -4.4060 c6         1 UFN       0.237600
     56 CAE         -8.3350   -18.8420    -4.9630 ca         1 UFN      -0.086300
     57 CAF         -7.6810   -19.7460    -5.7970 ca         1 UFN      -0.101000
     58 CAA         -6.4180   -19.4700    -6.2890 ca         1 UFN       0.034100
     59 OBE         -5.7450   -20.2870    -7.1360 oh         1 UFN      -0.565100
     60 CAB         -5.7640   -18.2840    -5.9300 ca         1 UFN       0.128100
     61 OBF         -4.5370   -17.9780    -6.4030 oh         1 UFN      -0.527100
     62 CAC         -6.4090   -17.3900    -5.0910 ca         1 UFN      -0.136000
     63 CAD         -7.6890   -17.6620    -4.6210 ca         1 UFN      -0.101000
     64 H1          -7.1780   -15.2510    -7.0280 ha         1 UFN       0.117000
     65 H2          -6.1870   -13.9390    -5.3990 ho         1 UFN       0.471000
     66 H3          -4.2100   -11.8600    -6.7590 ho         1 UFN       0.481000
     67 H4          -4.5530   -12.5390   -10.2000 ha         1 UFN       0.133000
     68 H5          -6.0260   -14.3050   -11.0550 ha         1 UFN       0.139000
     69 H6          -6.8300   -17.4680    -8.1420 h1         1 UFN       0.059700
     70 H7          -5.2940   -18.2940    -9.6920 ho         1 UFN       0.452000
     71 H8          -8.2040   -15.7570   -13.4340 ha         1 UFN       0.145000
     72 H9          -8.9790   -18.3530   -15.6840 ho         1 UFN       0.467000
     73 H10         -8.9540   -19.9520   -14.0330 ha         1 UFN       0.129000
     74 H11         -8.6780   -20.6840   -10.6460 ho         1 UFN       0.492000
     75 H12         -7.4710   -19.4500    -9.4610 hc         1 UFN       0.075700
     76 H13        -10.4410   -16.7710    -6.6760 hc         1 UFN       0.078200
     77 H14        -13.5690   -18.1190    -7.1490 ho         1 UFN       0.449000
     78 H15         -9.9790   -21.5550    -6.9210 h1         1 UFN       0.067700
     79 H16         -8.7410   -23.2710    -6.3340 ha         1 UFN       0.116000
     80 H17         -7.4070   -25.1040    -5.8060 ho         1 UFN       0.475000
     81 H18         -6.7560   -26.7430    -8.4490 ho         1 UFN       0.482000
     82 H19         -8.4390   -24.9360   -10.9620 ha         1 UFN       0.136000
     83 H20         -9.7490   -22.9200   -10.4870 ha         1 UFN       0.147000
     84 H21        -12.0340   -22.5260    -7.7980 h1         1 UFN       0.053700
     85 H22        -12.7050   -21.7480    -9.8600 ho         1 UFN       0.448000
     86 H23        -13.1070   -20.1870    -8.1890 hc         1 UFN       0.063700
     87 H24        -15.4170   -21.7670    -6.6040 ho         1 UFN       0.473000
     88 H25        -15.1880   -21.6580    -4.3680 ha         1 UFN       0.134000
     89 H26        -13.2220   -20.7620    -1.6270 ho         1 UFN       0.469000
     90 H27        -11.3940   -19.1250    -2.1890 hc         1 UFN       0.048700
     91 H28        -11.1840   -20.8300    -1.8630 hc         1 UFN       0.048700
     92 H29         -9.0830   -19.5070    -2.3980 h1         1 UFN       0.048700
     93 H30         -9.1750   -21.8150    -2.7380 ho         1 UFN       0.445000
     94 H31        -10.1640   -18.1650    -4.1260 h1         1 UFN       0.061700
     95 H32         -8.1550   -20.6760    -6.0810 ha         1 UFN       0.134000
     96 H33         -6.2940   -21.0320    -7.4070 ho         1 UFN       0.485000
     97 H34         -4.2200   -18.6740    -6.9910 ho         1 UFN       0.483000
     98 H35         -5.9140   -16.4640    -4.8250 ha         1 UFN       0.128000
     99 H36         -8.1820   -16.9380    -3.9840 ha         1 UFN       0.114000
    100 H37        -11.1330   -15.7580    -7.9390 hc         1 UFN       0.078200
    101 H38        -12.2810   -17.6020    -8.9490 h1         1 UFN       0.038700
@<TRIPOS>BOND
     1     1     2 ar  
     2     1     8 ar  
     3     1    64 1   
     4     2     3 1   
     5     2     4 ar  
     6     3    65 1   
     7     4     5 1   
     8     4     6 ar  
     9     5    66 1   
    10     6     7 ar  
    11     6    67 1   
    12     7     8 ar  
    13     7    68 1   
    14     8     9 1   
    15     9    10 1   
    16     9    12 1   
    17     9    13 1   
    18    10    11 1   
    19    10    22 1   
    20    10    69 1   
    21    11    70 1   
    22    12    24 1   
    23    13    14 1   
    24    14    15 ar  
    25    14    21 ar  
    26    15    16 ar  
    27    15    71 1   
    28    16    17 1   
    29    16    18 ar  
    30    17    72 1   
    31    18    19 ar  
    32    18    73 1   
    33    19    20 1   
    34    19    21 ar  
    35    20    74 1   
    36    21    22 1   
    37    22    23 1   
    38    22    75 1   
    39    23    24 2   
    40    23    29 1   
    41    24    25 1   
    42    25    26 1   
    43    25    76 1   
    44    25   100 1   
    45    26    27 1   
    46    26    28 1   
    47    26   101 1   
    48    27    77 1   
    49    28    29 2   
    50    28    42 1   
    51    29    30 1   
    52    30    31 1   
    53    31    32 1   
    54    31    40 1   
    55    31    78 1   
    56    32    33 ar  
    57    32    39 ar  
    58    33    34 ar  
    59    33    79 1   
    60    34    35 1   
    61    34    36 ar  
    62    35    80 1   
    63    36    37 1   
    64    36    38 ar  
    65    37    81 1   
    66    38    39 ar  
    67    38    82 1   
    68    39    83 1   
    69    40    41 1   
    70    40    42 1   
    71    40    84 1   
    72    41    85 1   
    73    42    43 1   
    74    42    86 1   
    75    43    44 ar  
    76    43    46 ar  
    77    44    45 1   
    78    44    51 ar  
    79    45    55 1   
    80    46    47 1   
    81    46    48 ar  
    82    47    87 1   
    83    48    49 ar  
    84    48    88 1   
    85    49    50 1   
    86    49    51 ar  
    87    50    89 1   
    88    51    52 1   
    89    52    53 1   
    90    52    90 1   
    91    52    91 1   
    92    53    54 1   
    93    53    55 1   
    94    53    92 1   
    95    54    93 1   
    96    55    56 1   
    97    55    94 1   
    98    56    57 ar  
    99    56    63 ar  
   100    57    58 ar  
   101    57    95 1   
   102    58    59 1   
   103    58    60 ar  
   104    59    96 1   
   105    60    61 1   
   106    60    62 ar  
   107    61    97 1   
   108    62    63 ar  
   109    62    98 1   
   110    63    99 1   
@<TRIPOS>SUBSTRUCTURE
     1 UFN         1 TEMP              0 ****  ****    0 ROOT
