@<TRIPOS>MOLECULE
UFN
  101   110     1     0     0
SMALL
No Charge or Current Charge


@<TRIPOS>ATOM
      1 CBX         -6.5130   -14.3610    -7.7380 ca         1 UFN      -0.131000
      2 CBY         -5.6520   -13.3190    -7.3510 ca         1 UFN       0.035100
      3 OCD         -5.6750   -12.8430    -6.0650 oh         1 UFN      -0.559100
      4 CBZ         -4.7610   -12.7600    -8.2890 ca         1 UFN       0.136100
      5 OCC         -3.9290   -11.7510    -7.9040 oh         1 UFN      -0.533100
      6 CCA         -4.7290   -13.2420    -9.6040 ca         1 UFN      -0.134000
      7 CCB         -5.5920   -14.2810    -9.9920 ca         1 UFN      -0.047000
      8 CBW         -6.5020   -14.8470    -9.0680 ca         1 UFN      -0.072300
      9 CBU         -7.4380   -16.0040    -9.4960 c6         1 UFN       0.469300
     10 CBT         -6.7560   -17.3950    -9.2630 c6         1 UFN       0.122300
     11 OCK         -5.5310   -17.5760   -10.0180 oh         1 UFN      -0.625000
     12 OBP         -8.6610   -15.8870    -8.7170 os         1 UFN      -0.345100
     13 OBV         -7.7680   -15.8300   -10.8980 os         1 UFN      -0.341100
     14 CBQ         -8.2070   -16.9020   -11.6500 ca         1 UFN       0.227100
     15 CCE         -8.5950   -16.6630   -12.9740 ca         1 UFN      -0.214000
     16 CCF         -9.0380   -17.7180   -13.7760 ca         1 UFN       0.203100
     17 OCI         -9.4120   -17.4780   -15.0610 oh         1 UFN      -0.530100
     18 CCG         -9.1070   -19.0150   -13.2560 ca         1 UFN      -0.283000
     19 CCH         -8.7250   -19.2580   -11.9330 ca         1 UFN       0.239100
     20 OCJ         -8.8450   -20.5160   -11.4390 oh         1 UFN      -0.547100
     21 CBR         -8.2460   -18.2140   -11.1240 ca         1 UFN      -0.278300
     22 CBS         -7.8080   -18.4480    -9.6750 c6         1 UFN       0.021800
     23 CBB         -9.0470   -18.2520    -8.8060 ce         1 UFN      -0.202200
     24 CBA         -9.4040   -17.0060    -8.4280 c2         1 UFN       0.136900
     25 CAZ        -10.6730   -16.7820    -7.6290 c6         1 UFN      -0.032200
     26 CAY        -11.7660   -17.8000    -8.0400 c6         1 UFN       0.244500
     27 OBC        -12.8470   -17.7400    -7.1150 oh         1 UFN      -0.659000
     28 CAT        -11.1950   -19.2200    -8.1190 c2         1 UFN      -0.251400
     29 CAU         -9.9020   -19.4060    -8.4910 ce         1 UFN       0.191100
     30 OAV         -9.3140   -20.6530    -8.6160 os         1 UFN      -0.360100
     31 CAW        -10.0270   -21.7750    -8.0460 c6         1 UFN       0.226600
     32 CBG         -9.2940   -23.0840    -8.3920 ca         1 UFN      -0.100300
     33 CBH         -8.7340   -23.8580    -7.3520 ca         1 UFN      -0.156000
     34 CBI         -8.0530   -25.0530    -7.6430 ca         1 UFN       0.033100
     35 OBM         -7.5140   -25.8020    -6.6290 oh         1 UFN      -0.559100
     36 CBJ         -7.9250   -25.4810    -8.9790 ca         1 UFN       0.132100
     37 OBN         -7.2620   -26.6410    -9.2500 oh         1 UFN      -0.531100
     38 CBK         -8.4740   -24.7180   -10.0180 ca         1 UFN      -0.130000
     39 CBL         -9.1560   -23.5230    -9.7270 ca         1 UFN      -0.063000
     40 CAX        -11.5410   -21.7240    -8.4240 c6         1 UFN       0.152300
     41 OBD        -11.7550   -21.7580    -9.8530 oh         1 UFN      -0.647000
     42 CAS        -12.1350   -20.4070    -7.8340 c6         1 UFN       0.040800
     43 CAP        -12.5590   -20.6040    -6.3460 ca         1 UFN      -0.184300
     44 CAK        -11.7190   -20.2700    -5.2480 ca         1 UFN       0.253100
     45 OAL        -10.4730   -19.7300    -5.4940 os         1 UFN      -0.321100
     46 CAO        -13.8240   -21.1690    -6.0690 ca         1 UFN       0.199100
     47 OBO        -14.6640   -21.5380    -7.0770 oh         1 UFN      -0.542100
     48 CAN        -14.2490   -21.3670    -4.7540 ca         1 UFN      -0.279000
     49 CAM        -13.4210   -21.0330    -3.6850 ca         1 UFN       0.225100
     50 OAR        -13.8790   -21.2400    -2.4230 oh         1 UFN      -0.533100
     51 CAJ        -12.1420   -20.4990    -3.9120 ca         1 UFN      -0.292300
     52 CAI        -11.2050   -20.1750    -2.7270 c6         1 UFN      -0.054100
     53 CAH         -9.7340   -20.0050    -3.1660 c6         1 UFN       0.143300
     54 OAQ         -9.1510   -21.3010    -3.4180 oh         1 UFN      -0.645000
     55 CAG         -9.7390   -19.0990    -4.4280 c6         1 UFN       0.237600
     56 CAE         -8.3330   -18.7280    -4.9270 ca         1 UFN      -0.086300
     57 CAF         -7.5700   -19.6390    -5.6900 ca         1 UFN      -0.101000
     58 CAA         -6.2710   -19.2990    -6.1100 ca         1 UFN       0.034100
     59 OBE         -5.5280   -20.1810    -6.8540 oh         1 UFN      -0.565100
     60 CAB         -5.7300   -18.0460    -5.7630 ca         1 UFN       0.128100
     61 OBF         -4.4660   -17.7310    -6.1620 oh         1 UFN      -0.527100
     62 CAC         -6.4870   -17.1290    -5.0200 ca         1 UFN      -0.136000
     63 CAD         -7.7870   -17.4690    -4.6030 ca         1 UFN      -0.101000
     64 H1          -7.1880   -14.7960    -7.0050 ha         1 UFN       0.117000
     65 H2          -6.3770   -13.3120    -5.5620 ho         1 UFN       0.471000
     66 H3          -4.1290   -11.5900    -6.9540 ho         1 UFN       0.481000
     67 H4          -4.0350   -12.8130   -10.3230 ha         1 UFN       0.133000
     68 H5          -5.5440   -14.6520   -11.0140 ha         1 UFN       0.139000
     69 H6          -6.5500   -17.4970    -8.1910 h1         1 UFN       0.059700
     70 H7          -5.2320   -18.4980    -9.8660 ho         1 UFN       0.452000
     71 H8          -8.5500   -15.6560   -13.3760 ha         1 UFN       0.145000
     72 H9          -9.6910   -18.3290   -15.4590 ho         1 UFN       0.467000
     73 H10         -9.4680   -19.8370   -13.8680 ha         1 UFN       0.129000
     74 H11         -8.9350   -20.4390   -10.4620 ho         1 UFN       0.492000
     75 H12         -7.3670   -19.4450    -9.5380 hc         1 UFN       0.075700
     76 H13        -10.4400   -16.8910    -6.5620 hc         1 UFN       0.078200
     77 H14        -12.8560   -18.6240    -6.6900 ho         1 UFN       0.449000
     78 H15         -9.9720   -21.6670    -6.9550 h1         1 UFN       0.067700
     79 H16         -8.8310   -23.5270    -6.3200 ha         1 UFN       0.116000
     80 H17         -7.7010   -25.3600    -5.7710 ho         1 UFN       0.475000
     81 H18         -6.9730   -26.9910    -8.3770 ho         1 UFN       0.482000
     82 H19         -8.3720   -25.0500   -11.0490 ha         1 UFN       0.136000
     83 H20         -9.5740   -22.9420   -10.5450 ha         1 UFN       0.147000
     84 H21        -12.0470   -22.5820    -7.9570 h1         1 UFN       0.053700
     85 H22        -12.7260   -21.7760    -9.9930 ho         1 UFN       0.448000
     86 H23        -13.0470   -20.1900    -8.4090 hc         1 UFN       0.063700
     87 H24        -15.4820   -21.9000    -6.6760 ho         1 UFN       0.473000
     88 H25        -15.2290   -21.7900    -4.5500 ha         1 UFN       0.134000
     89 H26        -13.1970   -20.9120    -1.8050 ho         1 UFN       0.469000
     90 H27        -11.5420   -19.2420    -2.2520 hc         1 UFN       0.048700
     91 H28        -11.2600   -20.9520    -1.9520 hc         1 UFN       0.048700
     92 H29         -9.1800   -19.4950    -2.3640 h1         1 UFN       0.048700
     93 H30         -9.2480   -21.8220    -2.5920 ho         1 UFN       0.445000
     94 H31        -10.2680   -18.1690    -4.1750 h1         1 UFN       0.061700
     95 H32         -7.9880   -20.6100    -5.9430 ha         1 UFN       0.134000
     96 H33         -6.0390   -21.0110    -6.9720 ho         1 UFN       0.485000
     97 H34         -4.1320   -18.5260    -6.6350 ho         1 UFN       0.483000
     98 H35         -6.0650   -16.1630    -4.7590 ha         1 UFN       0.128000
     99 H36         -8.3630   -16.7560    -4.0170 ha         1 UFN       0.114000
    100 H37        -11.0400   -15.7590    -7.7730 hc         1 UFN       0.078200
    101 H38        -12.1240   -17.5260    -9.0440 h1         1 UFN       0.038700
@<TRIPOS>BOND
     1     1     2 ar  
     2     1     8 ar  
     3     1    64 1   
     4     2     3 1   
     5     2     4 ar  
     6     3    65 1   
     7     4     5 1   
     8     4     6 ar  
     9     5    66 1   
    10     6     7 ar  
    11     6    67 1   
    12     7     8 ar  
    13     7    68 1   
    14     8     9 1   
    15     9    10 1   
    16     9    12 1   
    17     9    13 1   
    18    10    11 1   
    19    10    22 1   
    20    10    69 1   
    21    11    70 1   
    22    12    24 1   
    23    13    14 1   
    24    14    15 ar  
    25    14    21 ar  
    26    15    16 ar  
    27    15    71 1   
    28    16    17 1   
    29    16    18 ar  
    30    17    72 1   
    31    18    19 ar  
    32    18    73 1   
    33    19    20 1   
    34    19    21 ar  
    35    20    74 1   
    36    21    22 1   
    37    22    23 1   
    38    22    75 1   
    39    23    24 2   
    40    23    29 1   
    41    24    25 1   
    42    25    26 1   
    43    25    76 1   
    44    25   100 1   
    45    26    27 1   
    46    26    28 1   
    47    26   101 1   
    48    27    77 1   
    49    28    29 2   
    50    28    42 1   
    51    29    30 1   
    52    30    31 1   
    53    31    32 1   
    54    31    40 1   
    55    31    78 1   
    56    32    33 ar  
    57    32    39 ar  
    58    33    34 ar  
    59    33    79 1   
    60    34    35 1   
    61    34    36 ar  
    62    35    80 1   
    63    36    37 1   
    64    36    38 ar  
    65    37    81 1   
    66    38    39 ar  
    67    38    82 1   
    68    39    83 1   
    69    40    41 1   
    70    40    42 1   
    71    40    84 1   
    72    41    85 1   
    73    42    43 1   
    74    42    86 1   
    75    43    44 ar  
    76    43    46 ar  
    77    44    45 1   
    78    44    51 ar  
    79    45    55 1   
    80    46    47 1   
    81    46    48 ar  
    82    47    87 1   
    83    48    49 ar  
    84    48    88 1   
    85    49    50 1   
    86    49    51 ar  
    87    50    89 1   
    88    51    52 1   
    89    52    53 1   
    90    52    90 1   
    91    52    91 1   
    92    53    54 1   
    93    53    55 1   
    94    53    92 1   
    95    54    93 1   
    96    55    56 1   
    97    55    94 1   
    98    56    57 ar  
    99    56    63 ar  
   100    57    58 ar  
   101    57    95 1   
   102    58    59 1   
   103    58    60 ar  
   104    59    96 1   
   105    60    61 1   
   106    60    62 ar  
   107    61    97 1   
   108    62    63 ar  
   109    62    98 1   
   110    63    99 1   
@<TRIPOS>SUBSTRUCTURE
     1 UFN         1 TEMP              0 ****  ****    0 ROOT
