@<TRIPOS>MOLECULE
UFO
   31    32     1     0     0
SMALL
abcg2


@<TRIPOS>ATOM
      1 C2           2.0720    -0.0810    -0.1680 ca         1 UFO      -0.097300
      2 C1           1.0830     0.9040    -0.1670 ca         1 UFO      -0.147000
      3 C5          -0.6710    -0.7550     0.0080 ca         1 UFO       0.264000
      4 C4           0.3280    -1.7260     0.0360 ca         1 UFO      -0.154000
      5 C3           1.6790    -1.4020    -0.0550 ca         1 UFO      -0.088000
      6 N14          4.4080    -0.5430     0.4400 n8         1 UFO      -0.998200
      7 C13          3.5200     0.3110    -0.3310 c3         1 UFO       0.204100
      8 N7          -2.0180    -1.0830     0.0310 nh         1 UFO      -0.810400
      9 C12         -2.4100    -2.4380     0.3210 c3         1 UFO       0.206100
     10 C8          -2.9390    -0.0450     0.4250 c6         1 UFO       0.208800
     11 C9          -2.5910     1.2350    -0.3010 c6         1 UFO       0.206800
     12 N10         -1.2320     1.6100     0.0100 nh         1 UFO      -0.808400
     13 C11         -0.8570     2.9670    -0.2910 c3         1 UFO       0.205100
     14 C6          -0.2750     0.6100    -0.0590 ca         1 UFO       0.258000
     15 H1           1.3980     1.9370    -0.2450 ha         1 UFO       0.105000
     16 H4           0.0590    -2.7700     0.1260 ha         1 UFO       0.109000
     17 H3           2.4190    -2.1910    -0.0300 ha         1 UFO       0.127000
     18 HN14         5.3680    -0.2930     0.2430 hn         1 UFO       0.393500
     19 HN1A         4.2710    -0.3660     1.4270 hn         1 UFO       0.393500
     20 H13          3.8010     0.2120    -1.3850 h1         1 UFO       0.029200
     21 H13A         3.6220     1.3800    -0.0990 h1         1 UFO       0.029200
     22 H12         -2.1150    -2.7740     1.3240 h1         1 UFO       0.032700
     23 H12A        -3.4930    -2.5150     0.2460 h1         1 UFO       0.032700
     24 H12B        -1.9860    -3.1350    -0.4030 h1         1 UFO       0.032700
     25 H8          -3.9500    -0.3480     0.1510 h1         1 UFO       0.041700
     26 H8A         -2.9340     0.1330     1.5090 h1         1 UFO       0.041700
     27 H9          -2.7530     1.1030    -1.3800 h1         1 UFO       0.041700
     28 H9A         -3.2600     2.0300     0.0330 h1         1 UFO       0.041700
     29 H11         -1.7220     3.6120    -0.1440 h1         1 UFO       0.032033
     30 H11A        -0.0750     3.3210     0.3820 h1         1 UFO       0.032033
     31 H11B        -0.5040     3.1040    -1.3210 h1         1 UFO       0.032033
@<TRIPOS>BOND
     1     1     2 ar  
     2     1     5 ar  
     3     1     7 1   
     4     2    14 ar  
     5     2    15 1   
     6     3     4 ar  
     7     3     8 1   
     8     3    14 ar  
     9     4     5 ar  
    10     4    16 1   
    11     5    17 1   
    12     6     7 1   
    13     6    18 1   
    14     6    19 1   
    15     7    20 1   
    16     7    21 1   
    17     8     9 1   
    18     8    10 1   
    19     9    22 1   
    20     9    23 1   
    21     9    24 1   
    22    10    11 1   
    23    10    25 1   
    24    10    26 1   
    25    11    12 1   
    26    11    27 1   
    27    11    28 1   
    28    12    13 1   
    29    12    14 1   
    30    13    29 1   
    31    13    30 1   
    32    13    31 1   
@<TRIPOS>SUBSTRUCTURE
     1 UFO         1 TEMP              0 ****  ****    0 ROOT
