@<TRIPOS>MOLECULE
UFO
   31    32     1     0     0
SMALL
No Charge or Current Charge


@<TRIPOS>ATOM
      1 C2           2.1240    -0.2620    -0.3090 ca         1 UFO      -0.097300
      2 C1           1.1860     0.7860    -0.2680 ca         1 UFO      -0.147000
      3 C5          -0.6430    -0.8350     0.0060 ca         1 UFO       0.264000
      4 C4           0.3160    -1.8720    -0.0400 ca         1 UFO      -0.154000
      5 C3           1.6820    -1.5890    -0.1960 ca         1 UFO      -0.088000
      6 N14          4.2930     0.1300     0.8170 n8         1 UFO      -0.998200
      7 C13          3.6070     0.0390    -0.4830 c3         1 UFO       0.204100
      8 N7          -2.0330    -1.1480     0.1870 nh         1 UFO      -0.810400
      9 C12         -2.5600    -2.5320     0.2230 c3         1 UFO       0.206100
     10 C8          -2.9770    -0.0310     0.5020 c6         1 UFO       0.208800
     11 C9          -2.5910     1.3040    -0.2120 c6         1 UFO       0.206800
     12 N10         -1.1340     1.6200    -0.0980 nh         1 UFO      -0.808400
     13 C11         -0.7290     3.0450    -0.1180 c3         1 UFO       0.205100
     14 C6          -0.1970     0.5300    -0.1140 ca         1 UFO       0.258000
     15 H1           1.5470     1.8050    -0.3650 ha         1 UFO       0.105000
     16 H4           0.0160    -2.9100     0.0510 ha         1 UFO       0.109000
     17 H3           2.4010    -2.4050    -0.2250 ha         1 UFO       0.127000
     18 HN14         5.2630     0.4260     0.6600 hn         1 UFO       0.393500
     19 HN1A         3.8830     0.9080     1.3460 hn         1 UFO       0.393500
     20 H13          4.0820    -0.7530    -1.0790 h1         1 UFO       0.029200
     21 H13A         3.7350     0.9910    -1.0180 h1         1 UFO       0.029200
     22 H12         -2.1670    -3.0700     1.0960 h1         1 UFO       0.032700
     23 H12A        -3.6560    -2.5350     0.2890 h1         1 UFO       0.032700
     24 H12B        -2.2770    -3.0750    -0.6890 h1         1 UFO       0.032700
     25 H8          -4.0050    -0.2940     0.2120 h1         1 UFO       0.041700
     26 H8A         -2.9820     0.1420     1.5880 h1         1 UFO       0.041700
     27 H9          -2.8610     1.2230    -1.2750 h1         1 UFO       0.041700
     28 H9A         -3.2020     2.1140     0.2150 h1         1 UFO       0.041700
     29 H11         -1.6010     3.7030    -0.0130 h1         1 UFO       0.032033
     30 H11A        -0.0440     3.2610     0.7120 h1         1 UFO       0.032033
     31 H11B        -0.2310     3.2900    -1.0660 h1         1 UFO       0.032033
@<TRIPOS>BOND
     1     1     2 ar  
     2     1     5 ar  
     3     1     7 1   
     4     2    14 ar  
     5     2    15 1   
     6     3     4 ar  
     7     3     8 1   
     8     3    14 ar  
     9     4     5 ar  
    10     4    16 1   
    11     5    17 1   
    12     6     7 1   
    13     6    18 1   
    14     6    19 1   
    15     7    20 1   
    16     7    21 1   
    17     8     9 1   
    18     8    10 1   
    19     9    22 1   
    20     9    23 1   
    21     9    24 1   
    22    10    11 1   
    23    10    25 1   
    24    10    26 1   
    25    11    12 1   
    26    11    27 1   
    27    11    28 1   
    28    12    13 1   
    29    12    14 1   
    30    13    29 1   
    31    13    30 1   
    32    13    31 1   
@<TRIPOS>SUBSTRUCTURE
     1 UFO         1 TEMP              0 ****  ****    0 ROOT
