@<TRIPOS>MOLECULE
UFQ
   42    43     1     0     0
SMALL
No Charge or Current Charge


@<TRIPOS>ATOM
      1 N1         -11.5560    17.2480   -31.7620 n          1 UFQ      -0.295000
      2 N3         -10.3880    13.8350   -33.4960 nv         1 UFQ      -1.058200
      3 C4         -10.2030    16.9230   -31.6930 cc         1 UFQ       0.060600
      4 C5         -12.0810    18.4600   -31.0800 c5         1 UFQ       0.318700
      5 C6         -11.8410    18.3420   -29.5360 c5         1 UFQ       0.058300
      6 C7         -12.0150    19.8440   -29.1740 c5         1 UFQ       0.126300
      7 C8         -11.2140    20.5230   -30.3430 c5         1 UFQ       0.147300
      8 C1         -12.4670    16.3960   -32.4150 c          1 UFQ       0.723400
      9 C2         -10.7360    14.9640   -32.9220 cd         1 UFQ       0.783500
     10 C3          -9.7700    15.7570   -32.2800 cd         1 UFQ      -0.530600
     11 C9          -9.7010    20.7020   -30.0530 c3         1 UFQ       0.225600
     12 N2         -11.9900    15.2470   -32.9880 nc         1 UFQ      -0.805100
     13 O1         -13.6590    16.6430   -32.4840 o          1 UFQ      -0.556000
     14 O10        -10.4650    23.8500   -30.7250 o          1 UFQ      -0.874500
     15 O11         -8.7130    25.6370   -30.3760 os         1 UFQ      -0.691800
     16 O12         -9.2310    27.7060   -28.9430 o          1 UFQ      -0.786000
     17 O13        -10.9250    26.9770   -30.6510 o          1 UFQ      -0.786000
     18 O2         -12.7930    17.5130   -28.8380 oh         1 UFQ      -0.716000
     19 O3         -11.3640    19.6400   -31.4970 os         1 UFQ      -0.446000
     20 O4         -13.4100    20.1810   -29.1750 oh         1 UFQ      -0.685000
     21 O5          -9.5460    21.5680   -28.9210 os         1 UFQ      -0.598400
     22 O6          -7.0170    21.3610   -29.0390 o          1 UFQ      -0.845000
     23 O7          -7.9590    22.7710   -27.2820 o          1 UFQ      -0.845000
     24 O8          -8.1780    23.4790   -29.7290 os         1 UFQ      -0.716800
     25 O9         -10.0320    24.6740   -28.4080 o          1 UFQ      -0.874500
     26 P1          -8.1280    22.2960   -28.6880 p5         1 UFQ       1.467800
     27 P2          -9.4650    24.3910   -29.7590 p5         1 UFQ       1.510800
     28 P3          -9.4950    27.0000   -30.2310 p5         1 UFQ       1.309800
     29 S1          -8.4280    27.9670   -31.7410 sh         1 UFQ      -0.703200
     30 H1         -11.1720    13.2230   -33.6790 hn         1 UFQ       0.484500
     31 H2          -9.5550    13.3930   -33.1310 hn         1 UFQ       0.484500
     32 H3          -9.5870    17.6580   -31.1790 h4         1 UFQ       0.234000
     33 H4         -13.1490    18.5760   -31.3010 h2         1 UFQ       0.113700
     34 H5         -10.8170    18.0170   -29.3060 h1         1 UFQ       0.040700
     35 H6         -11.5690    20.0710   -28.1950 h1         1 UFQ       0.084700
     36 H7         -11.6300    21.5110   -30.5800 h1         1 UFQ       0.164700
     37 H8          -8.7270    15.4650   -32.2610 ha         1 UFQ       0.193000
     38 H9          -9.2460    19.7240   -29.8490 h1         1 UFQ       0.017700
     39 H10         -9.2170    21.1280   -30.9420 h1         1 UFQ       0.017700
     40 H12        -12.5160    16.5740   -28.9590 ho         1 UFQ       0.493000
     41 H13        -13.8480    19.3590   -28.8450 ho         1 UFQ       0.481000
     42 H16         -9.4630    27.5610   -32.5120 hs         1 UFQ       0.271800
@<TRIPOS>BOND
     1     1     3 1   
     2     1     4 1   
     3     1     8 1   
     4     2     9 1   
     5     2    30 1   
     6     2    31 1   
     7     3    10 2   
     8     3    32 1   
     9     4     5 1   
    10     4    19 1   
    11     4    33 1   
    12     5     6 1   
    13     5    18 1   
    14     5    34 1   
    15     6     7 1   
    16     6    20 1   
    17     6    35 1   
    18     7    11 1   
    19     7    19 1   
    20     7    36 1   
    21     8    12 1   
    22     8    13 2   
    23     9    10 1   
    24     9    12 2   
    25    10    37 1   
    26    11    21 1   
    27    11    38 1   
    28    11    39 1   
    29    14    27 1   
    30    15    27 1   
    31    15    28 1   
    32    16    28 1   
    33    17    28 1   
    34    18    40 1   
    35    20    41 1   
    36    21    26 1   
    37    22    26 1   
    38    23    26 1   
    39    24    26 1   
    40    24    27 1   
    41    25    27 1   
    42    28    29 1   
    43    29    42 1   
@<TRIPOS>SUBSTRUCTURE
     1 UFQ         1 TEMP              0 ****  ****    0 ROOT
