@<TRIPOS>MOLECULE
UFQ
   42    43     1     0     0
SMALL
abcg2


@<TRIPOS>ATOM
      1 N1         -11.5730    17.2730   -31.6480 n          1 UFQ      -0.295000
      2 N3         -10.2400    14.0820   -33.7150 nv         1 UFQ      -1.058200
      3 C4         -10.2530    16.9670   -31.6020 cc         1 UFQ       0.060600
      4 C5         -12.0690    18.4090   -30.8930 c5         1 UFQ       0.318700
      5 C6         -11.9600    18.2510   -29.3790 c5         1 UFQ       0.058300
      6 C7         -11.9500    19.7150   -28.9330 c5         1 UFQ       0.126300
      7 C8         -11.1280    20.3640   -30.0410 c5         1 UFQ       0.147300
      8 C1         -12.4600    16.5010   -32.4250 c          1 UFQ       0.723400
      9 C2         -10.6740    15.1430   -33.0350 cd         1 UFQ       0.783500
     10 C3          -9.7450    15.9160   -32.2720 cd         1 UFQ      -0.530600
     11 C9          -9.6390    20.4680   -29.7440 c3         1 UFQ       0.225600
     12 N2         -11.9550    15.4440   -33.0950 nc         1 UFQ      -0.805100
     13 O1         -13.6440    16.8010   -32.4680 o          1 UFQ      -0.556000
     14 O10        -10.3210    23.2520   -31.8410 o          1 UFQ      -0.874500
     15 O11         -9.3800    25.4610   -31.1100 os         1 UFQ      -0.691800
     16 O12         -8.6080    26.6400   -28.9480 o          1 UFQ      -0.786000
     17 O13        -10.7660    27.4310   -30.2230 o          1 UFQ      -0.786000
     18 O2         -13.0330    17.4930   -28.9010 oh         1 UFQ      -0.716000
     19 O3         -11.3080    19.5440   -31.2020 os         1 UFQ      -0.446000
     20 O4         -13.2490    20.2530   -28.9620 oh         1 UFQ      -0.685000
     21 O5          -9.4630    21.4110   -28.7110 os         1 UFQ      -0.598400
     22 O6          -6.9350    21.7110   -29.0610 o          1 UFQ      -0.845000
     23 O7          -8.3250    23.2690   -27.4890 o          1 UFQ      -0.845000
     24 O8          -8.5140    23.3630   -30.0690 os         1 UFQ      -0.716800
     25 O9         -10.8910    24.1780   -29.4640 o          1 UFQ      -0.874500
     26 P1          -8.1910    22.4550   -28.7330 p5         1 UFQ       1.467800
     27 P2          -9.9380    23.9930   -30.5990 p5         1 UFQ       1.510800
     28 P3          -9.3980    26.8320   -30.2000 p5         1 UFQ       1.309800
     29 S1          -8.1070    28.0330   -31.4280 sh         1 UFQ      -0.703200
     30 H1         -10.8830    13.5280   -34.2550 hn         1 UFQ       0.484500
     31 H2          -9.2740    13.8060   -33.6990 hn         1 UFQ       0.484500
     32 H3          -9.6190    17.6090   -31.0070 h4         1 UFQ       0.234000
     33 H4         -13.1130    18.5350   -31.1830 h2         1 UFQ       0.113700
     34 H5         -10.9960    17.7940   -29.1170 h1         1 UFQ       0.040700
     35 H6         -11.4850    19.8430   -27.9480 h1         1 UFQ       0.084700
     36 H7         -11.5080    21.3650   -30.2570 h1         1 UFQ       0.164700
     37 H8          -8.6930    15.6790   -32.2300 ha         1 UFQ       0.193000
     38 H9          -9.2310    19.4960   -29.4420 h1         1 UFQ       0.017700
     39 H10         -9.1270    20.7580   -30.6660 h1         1 UFQ       0.017700
     40 H12        -12.8140    17.1590   -28.0260 ho         1 UFQ       0.493000
     41 H13        -13.8390    19.6260   -28.5290 ho         1 UFQ       0.481000
     42 H16         -8.9670    28.3040   -32.4170 hs         1 UFQ       0.271800
@<TRIPOS>BOND
     1     1     3 1   
     2     1     4 1   
     3     1     8 1   
     4     2     9 1   
     5     2    30 1   
     6     2    31 1   
     7     3    10 2   
     8     3    32 1   
     9     4     5 1   
    10     4    19 1   
    11     4    33 1   
    12     5     6 1   
    13     5    18 1   
    14     5    34 1   
    15     6     7 1   
    16     6    20 1   
    17     6    35 1   
    18     7    11 1   
    19     7    19 1   
    20     7    36 1   
    21     8    12 1   
    22     8    13 2   
    23     9    10 1   
    24     9    12 2   
    25    10    37 1   
    26    11    21 1   
    27    11    38 1   
    28    11    39 1   
    29    14    27 1   
    30    15    27 1   
    31    15    28 1   
    32    16    28 1   
    33    17    28 1   
    34    18    40 1   
    35    20    41 1   
    36    21    26 1   
    37    22    26 1   
    38    23    26 1   
    39    24    26 1   
    40    24    27 1   
    41    25    27 1   
    42    28    29 1   
    43    29    42 1   
@<TRIPOS>SUBSTRUCTURE
     1 UFQ         1 TEMP              0 ****  ****    0 ROOT
