@<TRIPOS>MOLECULE
UFS
   66    67     1     0     0
SMALL
No Charge or Current Charge


@<TRIPOS>ATOM
      1 C13        -23.6660    -9.0340   -33.3460 ca         1 UFS      -0.037500
      2 C15        -22.7750    -8.7120   -35.7100 c          1 UFS       0.604300
      3 C17        -21.5170    -6.5460   -36.0560 ca         1 UFS      -0.035000
      4 C21        -21.5080    -2.0110   -35.7230 c          1 UFS       0.609100
      5 C22        -21.9070    -0.5650   -35.3930 c3         1 UFS      -0.162400
      6 C24        -21.4530     1.4580   -33.8580 c3         1 UFS       0.005700
      7 C26        -19.9950     2.3940   -31.8150 c1         1 UFS      -0.236000
      8 C28        -23.6410    -5.0400   -35.0240 ca         1 UFS      -0.170000
      9 C02        -23.3680   -13.3740   -23.2000 c          1 UFS       0.585100
     10 C03        -23.8070   -14.0900   -24.4830 c3         1 UFS      -0.147400
     11 C04        -24.5620   -13.1370   -25.4400 c3         1 UFS      -0.067400
     12 C05        -25.0200   -13.8300   -26.7430 c3         1 UFS      -0.076400
     13 C06        -25.7740   -12.8800   -27.7000 c3         1 UFS      -0.078400
     14 C07        -26.2290   -13.5770   -29.0040 c3         1 UFS      -0.067400
     15 C08        -27.0630   -12.6830   -29.9590 c3         1 UFS      -0.163400
     16 C09        -26.2540   -11.5210   -30.5600 c          1 UFS       0.610100
     17 C11        -25.0770   -10.9480   -32.7710 ca         1 UFS       0.005000
     18 C12        -24.4090    -9.7620   -32.4000 ca         1 UFS      -0.168000
     19 C14        -23.5820    -9.4740   -34.6840 ca         1 UFS      -0.197600
     20 C16        -22.6770    -7.2080   -35.6050 ca         1 UFS      -0.200600
     21 C18        -21.4150    -5.1460   -35.9780 ca         1 UFS      -0.170000
     22 C19        -22.4790    -4.3780   -35.4590 ca         1 UFS       0.010000
     23 C23        -21.0770     0.0030   -34.2150 c3         1 UFS      -0.062400
     24 C25        -20.6610     1.9850   -32.7390 c1         1 UFS      -0.149100
     25 C29        -23.7460    -6.4390   -35.1000 ca         1 UFS      -0.035000
     26 C31        -24.2280   -10.6730   -35.0480 ca         1 UFS      -0.037500
     27 C32        -24.9700   -11.3970   -34.0990 ca         1 UFS      -0.168000
     28 N10        -25.8400   -11.7370   -31.8680 ns         1 UFS      -0.150000
     29 N20        -22.4480    -2.9610   -35.3460 ns         1 UFS      -0.151000
     30 N34        -24.0630   -13.7120   -22.0500 ns         1 UFS      -0.380400
     31 O01        -22.4390   -12.5770   -23.1670 o          1 UFS      -0.618100
     32 O27        -20.4560    -2.2650   -36.2970 o          1 UFS      -0.565100
     33 O30        -22.2060    -9.3080   -36.6180 o          1 UFS      -0.528100
     34 O33        -26.0480   -10.4890   -29.9320 o          1 UFS      -0.569100
     35 O35        -23.6070   -13.2490   -20.7570 oh         1 UFS      -0.443100
     36 H1         -23.1450    -8.1340   -33.0270 ha         1 UFS       0.126500
     37 H2         -20.6840    -7.1180   -36.4620 ha         1 UFS       0.127500
     38 H3         -21.7250     0.0570   -36.2780 hc         1 UFS       0.059200
     39 H4         -22.9690    -0.5220   -35.1230 hc         1 UFS       0.059200
     40 H5         -22.5170     1.5110   -33.5950 hc         1 UFS       0.053200
     41 H6         -21.3050     2.1030   -34.7330 hc         1 UFS       0.053200
     42 H7         -19.3940     2.7500   -31.0000 ha         1 UFS       0.255000
     43 H8         -24.4760    -4.4670   -34.6280 ha         1 UFS       0.131500
     44 H9         -24.4680   -14.9290   -24.2350 hc         1 UFS       0.059700
     45 H10        -22.9140   -14.4630   -24.9980 hc         1 UFS       0.059700
     46 H11        -23.9130   -12.2890   -25.6920 hc         1 UFS       0.058200
     47 H12        -25.4390   -12.7260   -24.9230 hc         1 UFS       0.058200
     48 H13        -25.6700   -14.6780   -26.4910 hc         1 UFS       0.036200
     49 H14        -24.1440   -14.2400   -27.2600 hc         1 UFS       0.036200
     50 H15        -25.1200   -12.0340   -27.9430 hc         1 UFS       0.052700
     51 H16        -26.8330   -14.4540   -28.7400 hc         1 UFS       0.042700
     52 H17        -27.9140   -12.2740   -29.4020 hc         1 UFS       0.067700
     53 H18        -27.4270   -13.3270   -30.7680 hc         1 UFS       0.067700
     54 H19        -24.4400    -9.3920   -31.3810 ha         1 UFS       0.130500
     55 H20        -20.4990    -4.6820   -36.3260 ha         1 UFS       0.131500
     56 H21        -20.0100    -0.0420   -34.4700 hc         1 UFS       0.065700
     57 H22        -21.2210    -0.6350   -33.3320 hc         1 UFS       0.065700
     58 H23        -24.6690    -6.9180   -34.7750 ha         1 UFS       0.127500
     59 H24        -24.1640   -11.0420   -36.0700 ha         1 UFS       0.126500
     60 H25        -25.4660   -12.3160   -34.4040 ha         1 UFS       0.130500
     61 H26        -26.1270   -12.6290   -32.2490 hn         1 UFS       0.149000
     62 H27        -23.2690    -2.5730   -34.9000 hn         1 UFS       0.149000
     63 H28        -24.7170   -14.4940   -22.0550 hn         1 UFS       0.358500
     64 H29        -22.7130   -12.8790   -20.9640 ho         1 UFS       0.476000
     65 H30        -26.6520   -12.4710   -27.1840 hc         1 UFS       0.052700
     66 H31        -25.3490   -13.9550   -29.5400 hc         1 UFS       0.042700
@<TRIPOS>BOND
     1     1    18 ar  
     2     1    19 ar  
     3     1    36 1   
     4     2    19 1   
     5     2    20 1   
     6     2    33 2   
     7     3    20 ar  
     8     3    21 ar  
     9     3    37 1   
    10     4     5 1   
    11     4    29 1   
    12     4    32 2   
    13     5    23 1   
    14     5    38 1   
    15     5    39 1   
    16     6    23 1   
    17     6    24 1   
    18     6    40 1   
    19     6    41 1   
    20     7    24 3   
    21     7    42 1   
    22     8    22 ar  
    23     8    25 ar  
    24     8    43 1   
    25     9    10 1   
    26     9    30 1   
    27     9    31 2   
    28    10    11 1   
    29    10    44 1   
    30    10    45 1   
    31    11    12 1   
    32    11    46 1   
    33    11    47 1   
    34    12    13 1   
    35    12    48 1   
    36    12    49 1   
    37    13    14 1   
    38    13    50 1   
    39    13    65 1   
    40    14    15 1   
    41    14    51 1   
    42    14    66 1   
    43    15    16 1   
    44    15    52 1   
    45    15    53 1   
    46    16    28 1   
    47    16    34 2   
    48    17    18 ar  
    49    17    27 ar  
    50    17    28 1   
    51    18    54 1   
    52    19    26 ar  
    53    20    25 ar  
    54    21    22 ar  
    55    21    55 1   
    56    22    29 1   
    57    23    56 1   
    58    23    57 1   
    59    25    58 1   
    60    26    27 ar  
    61    26    59 1   
    62    27    60 1   
    63    28    61 1   
    64    29    62 1   
    65    30    35 1   
    66    30    63 1   
    67    35    64 1   
@<TRIPOS>SUBSTRUCTURE
     1 UFS         1 TEMP              0 ****  ****    0 ROOT
