@<TRIPOS>MOLECULE
UFS
   66    67     1     0     0
SMALL
bcc


@<TRIPOS>ATOM
      1 C13        -23.6040    -8.8040   -32.5670 ca         1 UFS      -0.055500
      2 C15        -22.2870    -8.5240   -34.7030 c          1 UFS       0.604300
      3 C17        -21.1770    -6.3350   -35.0800 ca         1 UFS      -0.053000
      4 C21        -21.4990    -1.9120   -35.2270 c          1 UFS       0.676100
      5 C22        -22.0410    -0.5000   -35.1920 c3         1 UFS      -0.162400
      6 C24        -21.5830     1.9630   -35.2010 c3         1 UFS       0.005700
      7 C26        -19.7410     3.8810   -35.2390 c1         1 UFS      -0.148500
      8 C28        -23.4770    -4.9390   -34.4840 ca         1 UFS      -0.188000
      9 C02        -23.6120   -14.4230   -23.5040 c          1 UFS       0.652100
     10 C03        -24.1290   -14.8590   -24.8490 c3         1 UFS      -0.147400
     11 C04        -24.8040   -13.7160   -25.6030 c3         1 UFS      -0.067400
     12 C05        -25.3190   -14.1610   -26.9650 c3         1 UFS      -0.076400
     13 C06        -25.9960   -13.0350   -27.7380 c3         1 UFS      -0.078400
     14 C07        -26.5690   -13.5160   -29.0650 c3         1 UFS      -0.067400
     15 C08        -27.3520   -12.4470   -29.8370 c3         1 UFS      -0.163400
     16 C09        -26.4790   -11.3040   -30.2970 c          1 UFS       0.677100
     17 C11        -24.9160   -10.7800   -32.1690 ca         1 UFS       0.097600
     18 C12        -24.4340    -9.5410   -31.7390 ca         1 UFS      -0.186000
     19 C14        -23.2130    -9.2730   -33.8190 ca         1 UFS      -0.197600
     20 C16        -22.3170    -7.0430   -34.7010 ca         1 UFS      -0.200600
     21 C18        -21.1600    -4.9530   -35.1390 ca         1 UFS      -0.188000
     22 C19        -22.3230    -4.2340   -34.8400 ca         1 UFS       0.102600
     23 C23        -20.9590     0.5650   -35.2160 c3         1 UFS      -0.062400
     24 C25        -20.5810     3.0220   -35.2240 c1         1 UFS      -0.149100
     25 C29        -23.4720    -6.3160   -34.4080 ca         1 UFS      -0.053000
     26 C31        -23.6660   -10.5310   -34.2220 ca         1 UFS      -0.055500
     27 C32        -24.5130   -11.2640   -33.4200 ca         1 UFS      -0.186000
     28 N10        -25.7780   -11.5860   -31.4350 ns         1 UFS      -0.476100
     29 N20        -22.4240    -2.8490   -34.8700 ns         1 UFS      -0.477100
     30 N34        -23.9850   -15.1880   -22.4790 ns         1 UFS      -0.447400
     31 O01        -22.8980   -13.4370   -23.3280 o          1 UFS      -0.618100
     32 O27        -20.3610    -2.1790   -35.5580 o          1 UFS      -0.565100
     33 O30        -21.5180    -9.1250   -35.4320 o          1 UFS      -0.528100
     34 O33        -26.3920   -10.2480   -29.7000 o          1 UFS      -0.569100
     35 O35        -23.5580   -14.9150   -21.2070 oh         1 UFS      -0.404100
     36 H1         -23.2370    -7.8520   -32.2050 ha         1 UFS       0.144500
     37 H2         -20.2690    -6.8720   -35.3230 ha         1 UFS       0.145500
     38 H3         -22.7060    -0.3820   -36.0550 hc         1 UFS       0.059200
     39 H4         -22.6770    -0.3760   -34.3110 hc         1 UFS       0.059200
     40 H5         -22.2090     2.0830   -34.3130 hc         1 UFS       0.053200
     41 H6         -22.2480     2.0820   -36.0620 hc         1 UFS       0.053200
     42 H7         -18.9990     4.6470   -35.2570 ha         1 UFS       0.167500
     43 H8         -24.3900    -4.3970   -34.2640 ha         1 UFS       0.149500
     44 H9         -24.8210   -15.6980   -24.7430 hc         1 UFS       0.059700
     45 H10        -23.2760   -15.2280   -25.4260 hc         1 UFS       0.059700
     46 H11        -24.0970   -12.8930   -25.7250 hc         1 UFS       0.058200
     47 H12        -25.6370   -13.3290   -25.0090 hc         1 UFS       0.058200
     48 H13        -26.0280   -14.9850   -26.8340 hc         1 UFS       0.036200
     49 H14        -24.4900   -14.5620   -27.5570 hc         1 UFS       0.036200
     50 H15        -25.2750   -12.2280   -27.8980 hc         1 UFS       0.052700
     51 H16        -27.2520   -14.3480   -28.8780 hc         1 UFS       0.042700
     52 H17        -28.1380   -12.0370   -29.2020 hc         1 UFS       0.067700
     53 H18        -27.8390   -12.9120   -30.6970 hc         1 UFS       0.067700
     54 H19        -24.6980    -9.1460   -30.7720 ha         1 UFS       0.148500
     55 H20        -20.2510    -4.4500   -35.4200 ha         1 UFS       0.149500
     56 H21        -20.3380     0.4570   -36.1060 hc         1 UFS       0.065700
     57 H22        -20.3000     0.4540   -34.3530 hc         1 UFS       0.065700
     58 H23        -24.3910    -6.8220   -34.1430 ha         1 UFS       0.145500
     59 H24        -23.3730   -10.9310   -35.1840 ha         1 UFS       0.144500
     60 H25        -24.8760   -12.2250   -33.7640 ha         1 UFS       0.148500
     61 H26        -25.9700   -12.4850   -31.8530 hn         1 UFS       0.315500
     62 H27        -23.3290    -2.4890   -34.6020 hn         1 UFS       0.315500
     63 H28        -24.5310   -16.0310   -22.5430 hn         1 UFS       0.358500
     64 H29        -22.9620   -14.1560   -21.3170 ho         1 UFS       0.437000
     65 H30        -26.8030   -12.6090   -27.1320 hc         1 UFS       0.052700
     66 H31        -25.7690   -13.9200   -29.6920 hc         1 UFS       0.042700
@<TRIPOS>BOND
     1     1    18 ar  
     2     1    19 ar  
     3     1    36 1   
     4     2    19 1   
     5     2    20 1   
     6     2    33 2   
     7     3    20 ar  
     8     3    21 ar  
     9     3    37 1   
    10     4     5 1   
    11     4    29 1   
    12     4    32 2   
    13     5    23 1   
    14     5    38 1   
    15     5    39 1   
    16     6    23 1   
    17     6    24 1   
    18     6    40 1   
    19     6    41 1   
    20     7    24 3   
    21     7    42 1   
    22     8    22 ar  
    23     8    25 ar  
    24     8    43 1   
    25     9    10 1   
    26     9    30 1   
    27     9    31 2   
    28    10    11 1   
    29    10    44 1   
    30    10    45 1   
    31    11    12 1   
    32    11    46 1   
    33    11    47 1   
    34    12    13 1   
    35    12    48 1   
    36    12    49 1   
    37    13    14 1   
    38    13    50 1   
    39    13    65 1   
    40    14    15 1   
    41    14    51 1   
    42    14    66 1   
    43    15    16 1   
    44    15    52 1   
    45    15    53 1   
    46    16    28 1   
    47    16    34 2   
    48    17    18 ar  
    49    17    27 ar  
    50    17    28 1   
    51    18    54 1   
    52    19    26 ar  
    53    20    25 ar  
    54    21    22 ar  
    55    21    55 1   
    56    22    29 1   
    57    23    56 1   
    58    23    57 1   
    59    25    58 1   
    60    26    27 ar  
    61    26    59 1   
    62    27    60 1   
    63    28    61 1   
    64    29    62 1   
    65    30    35 1   
    66    30    63 1   
    67    35    64 1   
@<TRIPOS>SUBSTRUCTURE
     1 UFS         1 TEMP              0 ****  ****    0 ROOT
