@<TRIPOS>MOLECULE
UFV
   19    19     1     0     0
SMALL
bcc


@<TRIPOS>ATOM
      1 C1           0.9340    -0.0320     0.0580 ca         1 UFV      -0.083900
      2 C2          -0.2840    -0.7030     0.0510 ca         1 UFV      -0.039000
      3 C3          -1.4500     0.0350    -0.0050 ca         1 UFV      -0.213300
      4 C4          -1.3960     1.4280    -0.0270 ca         1 UFV      -0.101000
      5 C5          -0.1850     2.0930    -0.0140 ca         1 UFV       0.062600
      6 C6           1.0290     1.3570     0.0040 ca         1 UFV       0.176600
      7 N1           2.2080     2.0580     0.0210 nv         1 UFV      -0.817200
      8 N2          -0.1010     3.4770    -0.0760 nv         1 UFV      -0.809200
      9 BR           2.5140    -1.0700     0.1240 br         1 UFV      -0.094100
     10 C7          -2.7840    -0.6300    -0.0420 c3         1 UFV       0.725200
     11 F1          -2.7070    -1.9570     0.1030 f          1 UFV      -0.236633
     12 F2          -3.5990    -0.1790     0.9250 f          1 UFV      -0.236633
     13 F3          -3.4260    -0.4030    -1.2010 f          1 UFV      -0.236633
     14 H2          -0.3020    -1.7830     0.0850 ha         1 UFV       0.164000
     15 H4          -2.3060     2.0180    -0.0420 ha         1 UFV       0.146000
     16 H21N        -0.9960     3.9360     0.0070 hn         1 UFV       0.385300
     17 H22N         0.5460     3.8800     0.5880 hn         1 UFV       0.385300
     18 H11N         3.0520     1.5420    -0.1680 hn         1 UFV       0.411800
     19 H12N         2.1880     2.9290    -0.4890 hn         1 UFV       0.411800
@<TRIPOS>BOND
     1     1     2 ar  
     2     1     6 ar  
     3     1     9 1   
     4     2     3 ar  
     5     2    14 1   
     6     3     4 ar  
     7     3    10 1   
     8     4     5 ar  
     9     4    15 1   
    10     5     6 ar  
    11     5     8 1   
    12     6     7 1   
    13     7    18 1   
    14     7    19 1   
    15     8    16 1   
    16     8    17 1   
    17    10    11 1   
    18    10    12 1   
    19    10    13 1   
@<TRIPOS>SUBSTRUCTURE
     1 UFV         1 TEMP              0 ****  ****    0 ROOT
