@<TRIPOS>MOLECULE
UFV
   19    19     1     0     0
SMALL
No Charge or Current Charge


@<TRIPOS>ATOM
      1 C1           0.9650    -0.0320    -0.0180 ca         1 UFV      -0.083900
      2 C2          -0.2770    -0.6880    -0.0300 ca         1 UFV      -0.021000
      3 C3          -1.4800     0.0480    -0.0090 ca         1 UFV      -0.213300
      4 C4          -1.4190     1.4590     0.0140 ca         1 UFV      -0.083000
      5 C5          -0.1860     2.1370     0.0320 ca         1 UFV       0.201000
      6 C6           1.0310     1.3780     0.0100 ca         1 UFV       0.315000
      7 N1           2.2740     1.9990    -0.0020 nv         1 UFV      -1.066000
      8 N2          -0.2000     3.5300     0.0800 nv         1 UFV      -1.058000
      9 Br           2.5620    -1.1050    -0.0570 br         1 UFV      -0.094100
     10 C7          -2.8320    -0.6750    -0.0360 c3         1 UFV       0.361300
     11 F1          -2.7790    -1.8870     0.5620 f          1 UFV      -0.115333
     12 F2          -3.8020     0.0240     0.5970 f          1 UFV      -0.115333
     13 F3          -3.2540    -0.8780    -1.3040 f          1 UFV      -0.115333
     14 H2          -0.2990    -1.7760    -0.0620 ha         1 UFV       0.146000
     15 H4          -2.3390     2.0380     0.0200 ha         1 UFV       0.128000
     16 H21N        -1.0850     4.0130     0.2300 hn         1 UFV       0.440500
     17 H22N         0.6370     4.0230     0.3830 hn         1 UFV       0.440500
     18 H11N         3.0930     1.4230    -0.1880 hn         1 UFV       0.467000
     19 H12N         2.3270     2.9640    -0.3210 hn         1 UFV       0.467000
@<TRIPOS>BOND
     1     1     2 ar  
     2     1     6 ar  
     3     1     9 1   
     4     2     3 ar  
     5     2    14 1   
     6     3     4 ar  
     7     3    10 1   
     8     4     5 ar  
     9     4    15 1   
    10     5     6 ar  
    11     5     8 1   
    12     6     7 1   
    13     7    18 1   
    14     7    19 1   
    15     8    16 1   
    16     8    17 1   
    17    10    11 1   
    18    10    12 1   
    19    10    13 1   
@<TRIPOS>SUBSTRUCTURE
     1 UFV         1 TEMP              0 ****  ****    0 ROOT
