@<TRIPOS>MOLECULE
UFZ
   18    18     1     0     0
SMALL
No Charge or Current Charge


@<TRIPOS>ATOM
      1 N            2.6430     0.0060     0.6540 nz         1 UFZ      -0.977000
      2 C            1.9360     0.0190    -0.6630 c3         1 UFZ       0.167900
      3 C1           0.4550     0.0140    -0.3540 ca         1 UFZ      -0.196300
      4 C2          -0.2360    -1.2050    -0.2210 ca         1 UFZ      -0.079000
      5 C3          -1.6120    -1.2090     0.0700 ca         1 UFZ      -0.095500
      6 C4          -2.3020     0.0050     0.2290 ca         1 UFZ      -0.051000
      7 C5          -1.6150     1.2240     0.0960 ca         1 UFZ      -0.095500
      8 C6          -0.2390     1.2290    -0.1950 ca         1 UFZ      -0.079000
      9 HN3          2.4050     0.8210     1.2370 hn         1 UFZ       0.509000
     10 HN1          2.4070    -0.8210     1.2200 hn         1 UFZ       0.509000
     11 HN2          3.6700     0.0090     0.5630 hn         1 UFZ       0.509000
     12 H1           2.2190     0.9150    -1.2280 hx         1 UFZ       0.105200
     13 H2A          2.2210    -0.8640    -1.2460 hx         1 UFZ       0.105200
     14 H2           0.2890    -2.1500    -0.3420 ha         1 UFZ       0.118500
     15 H3          -2.1430    -2.1530     0.1730 ha         1 UFZ       0.143000
     16 H4          -3.3670     0.0020     0.4540 ha         1 UFZ       0.144000
     17 H5          -2.1480     2.1650     0.2180 ha         1 UFZ       0.143000
     18 H6           0.2840     2.1780    -0.2970 ha         1 UFZ       0.118500
@<TRIPOS>BOND
     1     1     2 1   
     2     1     9 1   
     3     1    10 1   
     4     1    11 1   
     5     2     3 1   
     6     2    12 1   
     7     2    13 1   
     8     3     4 ar  
     9     3     8 ar  
    10     4     5 ar  
    11     4    14 1   
    12     5     6 ar  
    13     5    15 1   
    14     6     7 ar  
    15     6    16 1   
    16     7     8 ar  
    17     7    17 1   
    18     8    18 1   
@<TRIPOS>SUBSTRUCTURE
     1 UFZ         1 TEMP              0 ****  ****    0 ROOT
