@<TRIPOS>MOLECULE
UFZ
   18    18     1     0     0
SMALL
abcg2


@<TRIPOS>ATOM
      1 N            2.6720    -0.0340     0.6540 nz         1 UFZ      -0.977000
      2 C            1.9000     0.0440    -0.6210 c3         1 UFZ       0.167900
      3 C1           0.4270     0.0320    -0.3460 ca         1 UFZ      -0.196300
      4 C2          -0.2460    -1.1770    -0.1920 ca         1 UFZ      -0.079000
      5 C3          -1.6040    -1.1900     0.0900 ca         1 UFZ      -0.095500
      6 C4          -2.2990     0.0060     0.2160 ca         1 UFZ      -0.051000
      7 C5          -1.6330     1.2150     0.0610 ca         1 UFZ      -0.095500
      8 C6          -0.2740     1.2270    -0.2200 ca         1 UFZ      -0.079000
      9 HN3          2.4620     0.7480     1.2740 hn         1 UFZ       0.509000
     10 HN1          2.4710    -0.8910     1.1680 hn         1 UFZ       0.509000
     11 HN2          3.6770    -0.0180     0.4810 hn         1 UFZ       0.509000
     12 H1           2.2170     0.9580    -1.1180 hx         1 UFZ       0.105200
     13 H2A          2.2130    -0.8050    -1.2240 hx         1 UFZ       0.105200
     14 H2           0.2920    -2.1120    -0.3010 ha         1 UFZ       0.118500
     15 H3          -2.1210    -2.1330     0.2080 ha         1 UFZ       0.143000
     16 H4          -3.3600    -0.0030     0.4290 ha         1 UFZ       0.144000
     17 H5          -2.1720     2.1480     0.1540 ha         1 UFZ       0.143000
     18 H6           0.2430     2.1710    -0.3480 ha         1 UFZ       0.118500
@<TRIPOS>BOND
     1     1     2 1   
     2     1     9 1   
     3     1    10 1   
     4     1    11 1   
     5     2     3 1   
     6     2    12 1   
     7     2    13 1   
     8     3     4 ar  
     9     3     8 ar  
    10     4     5 ar  
    11     4    14 1   
    12     5     6 ar  
    13     5    15 1   
    14     6     7 ar  
    15     6    16 1   
    16     7     8 ar  
    17     7    17 1   
    18     8    18 1   
@<TRIPOS>SUBSTRUCTURE
     1 UFZ         1 TEMP              0 ****  ****    0 ROOT
