@<TRIPOS>MOLECULE
UG0
   31    32     1     0     0
SMALL
abcg2


@<TRIPOS>ATOM
      1 C10         -9.2870   -15.7720    11.7690 ca         1 UG0      -0.225600
      2 N12        -11.5860   -15.6530    11.1210 nb         1 UG0      -0.707000
      3 C13        -11.4360   -14.3690    10.9610 ca         1 UG0       0.590200
      4 C15        -10.2630   -13.6630    11.1650 ca         1 UG0      -0.208000
      5 C17         -5.6900   -15.3810    14.5740 ca         1 UG0      -0.089000
      6 C02         -5.3090   -16.2040    16.8200 ca         1 UG0      -0.067300
      7 C03         -5.2460   -17.4930    16.2970 ca         1 UG0      -0.110500
      8 C04         -5.4100   -17.7240    14.9380 ca         1 UG0      -0.089000
      9 C05         -5.6330   -16.6720    14.0580 ca         1 UG0      -0.110300
     10 C06         -5.7850   -16.9190    12.5760 c3         1 UG0       0.157300
     11 N07         -6.9340   -16.2460    12.0090 ns         1 UG0      -0.506900
     12 C08         -8.1870   -16.6400    12.2860 c          1 UG0       0.622700
     13 O09         -8.4370   -17.6480    12.9280 o          1 UG0      -0.584100
     14 C11        -10.5290   -16.3460    11.5280 ca         1 UG0       0.422900
     15 F14        -12.5250   -13.7040    10.5780 f          1 UG0      -0.221200
     16 C16         -9.1670   -14.3960    11.5790 ca         1 UG0      -0.030000
     17 C18         -5.5320   -15.1520    15.9330 ca         1 UG0      -0.110500
     18 H1         -10.2130   -12.5940    11.0210 ha         1 UG0       0.145000
     19 H2          -5.8620   -14.5400    13.9120 ha         1 UG0       0.109500
     20 H3          -6.1350   -16.0670    18.8000 hc         1 UG0       0.042700
     21 H4          -4.4850   -16.6650    18.7580 hc         1 UG0       0.042700
     22 H5          -4.8120   -14.9510    18.5000 hc         1 UG0       0.042700
     23 H6          -5.0740   -18.3320    16.9620 ha         1 UG0       0.111500
     24 H7          -5.3640   -18.7380    14.5590 ha         1 UG0       0.109500
     25 H8          -5.8450   -17.9920    12.3820 h1         1 UG0       0.057200
     26 H9          -4.9090   -16.5520    12.0410 h1         1 UG0       0.057200
     27 H10         -6.7690   -15.4610    11.4020 hn         1 UG0       0.316500
     28 H11        -10.6760   -17.4110    11.6660 h4         1 UG0       0.049100
     29 H12         -8.2380   -13.8770    11.7770 ha         1 UG0       0.120000
     30 H13         -5.5790   -14.1370    16.3100 ha         1 UG0       0.111500
     31 C01         -5.1730   -15.9580    18.2940 c3         1 UG0      -0.047800
@<TRIPOS>BOND
     1     1    12 1   
     2     1    14 ar  
     3     1    16 ar  
     4     2     3 ar  
     5     2    14 ar  
     6     3     4 ar  
     7     3    15 1   
     8     4    16 ar  
     9     4    18 1   
    10     5     9 ar  
    11     5    17 ar  
    12     5    19 1   
    13     6     7 ar  
    14     6    17 ar  
    15     6    31 1   
    16     7     8 ar  
    17     7    23 1   
    18     8     9 ar  
    19     8    24 1   
    20     9    10 1   
    21    10    11 1   
    22    10    25 1   
    23    10    26 1   
    24    11    12 1   
    25    11    27 1   
    26    12    13 2   
    27    14    28 1   
    28    16    29 1   
    29    17    30 1   
    30    20    31 1   
    31    21    31 1   
    32    22    31 1   
@<TRIPOS>SUBSTRUCTURE
     1 UG0         1 TEMP              0 ****  ****    0 ROOT
