@<TRIPOS>MOLECULE
UG0
   31    32     1     0     0
SMALL
No Charge or Current Charge


@<TRIPOS>ATOM
      1 C10         -9.3610   -15.9040    11.6100 ca         1 UG0      -0.225600
      2 N12        -11.7290   -15.9810    11.0550 nb         1 UG0      -0.707000
      3 C13        -11.6850   -14.6490    10.8590 ca         1 UG0       0.590200
      4 C15        -10.5300   -13.8750    11.0160 ca         1 UG0      -0.208000
      5 C17         -4.9080   -15.3100    14.6780 ca         1 UG0      -0.089000
      6 C02         -5.2050   -16.2080    16.9270 ca         1 UG0      -0.067300
      7 C03         -5.8350   -17.3410    16.3800 ca         1 UG0      -0.110500
      8 C04         -5.9980   -17.4600    14.9890 ca         1 UG0      -0.089000
      9 C05         -5.5340   -16.4450    14.1290 ca         1 UG0      -0.110300
     10 C06         -5.7150   -16.5720    12.6240 c3         1 UG0       0.157300
     11 N07         -6.9860   -15.9900    12.1910 ns         1 UG0      -0.506900
     12 C08         -8.1560   -16.6960    12.0230 c          1 UG0       0.622700
     13 O09         -8.2050   -17.9040    12.2010 o          1 UG0      -0.584100
     14 C11        -10.5780   -16.5890    11.4260 ca         1 UG0       0.422900
     15 F14        -12.8520   -14.0790    10.4910 f          1 UG0      -0.221200
     16 C16         -9.3370   -14.5060    11.4000 ca         1 UG0      -0.030000
     17 C18         -4.7450   -15.1920    16.0690 ca         1 UG0      -0.110500
     18 H1         -10.5680   -12.8050    10.8410 ha         1 UG0       0.145000
     19 H2          -4.5490   -14.5160    14.0260 ha         1 UG0       0.109500
     20 H3          -5.8960   -15.5740    18.8830 hc         1 UG0       0.042700
     21 H4          -4.9310   -17.0600    18.9100 hc         1 UG0       0.042700
     22 H5          -4.1370   -15.4970    18.6840 hc         1 UG0       0.042700
     23 H6          -6.2000   -18.1310    17.0320 ha         1 UG0       0.111500
     24 H7          -6.4880   -18.3400    14.5780 ha         1 UG0       0.109500
     25 H8          -5.6670   -17.6290    12.3280 h1         1 UG0       0.057200
     26 H9          -4.8980   -16.0500    12.1090 h1         1 UG0       0.057200
     27 H10         -7.0230   -14.9930    12.0310 hn         1 UG0       0.316500
     28 H11        -10.6460   -17.6660    11.5770 h4         1 UG0       0.049100
     29 H12         -8.4340   -13.9120    11.5240 ha         1 UG0       0.120000
     30 H13         -4.2610   -14.3080    16.4790 ha         1 UG0       0.111500
     31 C01         -5.0320   -16.0780    18.4330 c3         1 UG0      -0.047800
@<TRIPOS>BOND
     1     1    12 1   
     2     1    14 ar  
     3     1    16 ar  
     4     2     3 ar  
     5     2    14 ar  
     6     3     4 ar  
     7     3    15 1   
     8     4    16 ar  
     9     4    18 1   
    10     5     9 ar  
    11     5    17 ar  
    12     5    19 1   
    13     6     7 ar  
    14     6    17 ar  
    15     6    31 1   
    16     7     8 ar  
    17     7    23 1   
    18     8     9 ar  
    19     8    24 1   
    20     9    10 1   
    21    10    11 1   
    22    10    25 1   
    23    10    26 1   
    24    11    12 1   
    25    11    27 1   
    26    12    13 2   
    27    14    28 1   
    28    16    29 1   
    29    17    30 1   
    30    20    31 1   
    31    21    31 1   
    32    22    31 1   
@<TRIPOS>SUBSTRUCTURE
     1 UG0         1 TEMP              0 ****  ****    0 ROOT
