@<TRIPOS>MOLECULE
UG1
   24    25     1     0     0
SMALL
bcc


@<TRIPOS>ATOM
      1 C02        -32.5930   -15.7740     6.3720 c          1 UG1       0.623600
      2 C04        -32.0760   -14.4850     6.8120 cc         1 UG1       0.151800
      3 C05        -31.9500   -13.3530     6.0310 cd         1 UG1       0.119000
      4 C08        -31.1880   -13.0180     8.0790 cd         1 UG1       0.403400
      5 C10        -31.0380   -11.0870     6.5430 ca         1 UG1       0.035800
      6 C11        -31.9250   -10.2510     5.8780 ca         1 UG1      -0.254800
      7 C12        -31.5210    -8.9510     5.6180 ca         1 UG1       0.414700
      8 C14        -29.5100    -9.2660     6.6190 ca         1 UG1       0.414700
      9 C15        -29.8000   -10.5880     6.9200 ca         1 UG1      -0.254800
     10 N01        -32.5890   -16.7450     7.3000 nt         1 UG1      -0.657000
     11 N06        -32.3190   -13.0990     4.7460 nv         1 UG1      -0.802200
     12 N07        -31.3830   -12.4150     6.8550 na         1 UG1      -0.176000
     13 N09        -31.6010   -14.2380     8.0810 nc         1 UG1      -0.638000
     14 N13        -30.3430    -8.4570     5.9780 nb         1 UG1      -0.659000
     15 O03        -32.9980   -15.9460     5.2200 o          1 UG1      -0.657100
     16 H1         -30.7590   -12.4790     8.9110 h5         1 UG1       0.064100
     17 H2         -32.9080   -10.5860     5.5780 ha         1 UG1       0.162000
     18 H3         -32.1940    -8.2780     5.0990 h4         1 UG1       0.027600
     19 H4         -28.5510    -8.8510     6.9060 h4         1 UG1       0.027600
     20 H5         -29.0690   -11.2060     7.4240 ha         1 UG1       0.162000
     21 H6         -32.9150   -17.6690     7.0740 hn         1 UG1       0.322500
     22 H7         -32.2370   -16.5760     8.2270 hn         1 UG1       0.322500
     23 H8         -31.7150   -12.4920     4.2110 hn         1 UG1       0.423800
     24 H9         -32.5650   -13.9410     4.2450 hn         1 UG1       0.423800
@<TRIPOS>BOND
     1     1     2 1   
     2     1    10 1   
     3     1    15 2   
     4     2     3 2   
     5     2    13 1   
     6     3    11 1   
     7     3    12 1   
     8     4    12 1   
     9     4    13 2   
    10     4    16 1   
    11     5     6 ar  
    12     5     9 ar  
    13     5    12 1   
    14     6     7 ar  
    15     6    17 1   
    16     7    14 ar  
    17     7    18 1   
    18     8     9 ar  
    19     8    14 ar  
    20     8    19 1   
    21     9    20 1   
    22    10    21 1   
    23    10    22 1   
    24    11    23 1   
    25    11    24 1   
@<TRIPOS>SUBSTRUCTURE
     1 UG1         1 TEMP              0 ****  ****    0 ROOT
