@<TRIPOS>MOLECULE
UG1
   24    25     1     0     0
SMALL
No Charge or Current Charge


@<TRIPOS>ATOM
      1 C02        -32.0810   -15.7980     6.3790 c          1 UG1       0.556600
      2 C04        -32.0740   -14.3830     6.8760 cc         1 UG1       0.086500
      3 C05        -32.0860   -13.2880     6.0370 cd         1 UG1       0.272000
      4 C08        -32.0050   -12.6590     8.1880 cd         1 UG1       0.403400
      5 C10        -31.4210   -11.0780     6.5550 ca         1 UG1       0.035800
      6 C11        -32.0620    -9.8600     6.2780 ca         1 UG1      -0.171500
      7 C12        -31.2880    -8.7350     5.9520 ca         1 UG1       0.349400
      8 C14        -29.3180    -9.9380     6.1580 ca         1 UG1       0.349400
      9 C15        -30.0160   -11.1090     6.4940 ca         1 UG1      -0.171500
     10 N01        -32.0440   -16.7430     7.3460 nt         1 UG1      -0.590000
     11 N06        -32.0980   -13.1500     4.6660 nv         1 UG1      -1.051000
     12 N07        -32.1710   -12.2080     6.8890 na         1 UG1      -0.125300
     13 N09        -32.0210   -13.9910     8.2070 nc         1 UG1      -0.638000
     14 N13        -29.9370    -8.7640     5.8900 nb         1 UG1      -0.659000
     15 O03        -32.1190   -16.1450     5.2070 o          1 UG1      -0.657100
     16 H1         -31.8790   -11.9890     9.0310 h5         1 UG1       0.064100
     17 H2         -33.1450    -9.7780     6.3140 ha         1 UG1       0.144000
     18 H3         -31.7640    -7.7790     5.7330 h4         1 UG1       0.027600
     19 H4         -28.2300    -9.9370     6.1020 h4         1 UG1       0.027600
     20 H5         -29.4640   -12.0220     6.6980 ha         1 UG1       0.144000
     21 H6         -32.0470   -17.7190     7.0940 hn         1 UG1       0.322500
     22 H7         -32.0140   -16.4540     8.3130 hn         1 UG1       0.322500
     23 H8         -32.2780   -12.2430     4.2400 hn         1 UG1       0.479000
     24 H9         -32.1830   -13.9810     4.0790 hn         1 UG1       0.479000
@<TRIPOS>BOND
     1     1     2 1   
     2     1    10 1   
     3     1    15 2   
     4     2     3 2   
     5     2    13 1   
     6     3    11 1   
     7     3    12 1   
     8     4    12 1   
     9     4    13 2   
    10     4    16 1   
    11     5     6 ar  
    12     5     9 ar  
    13     5    12 1   
    14     6     7 ar  
    15     6    17 1   
    16     7    14 ar  
    17     7    18 1   
    18     8     9 ar  
    19     8    14 ar  
    20     8    19 1   
    21     9    20 1   
    22    10    21 1   
    23    10    22 1   
    24    11    23 1   
    25    11    24 1   
@<TRIPOS>SUBSTRUCTURE
     1 UG1         1 TEMP              0 ****  ****    0 ROOT
