@<TRIPOS>MOLECULE
UG2
   33    35     1     0     0
SMALL
bcc


@<TRIPOS>ATOM
      1 C01        -21.3070   -20.8960    -4.1400 c3         1 UG2       0.185700
      2 C02        -22.1330   -21.2970    -2.9490 ca         1 UG2      -0.080300
      3 C03        -21.7560   -20.8540    -1.6820 ca         1 UG2      -0.108000
      4 C04        -22.5060   -21.1670    -0.5620 ca         1 UG2      -0.123500
      5 C05        -23.6410   -21.9550    -0.6980 ca         1 UG2      -0.009200
      6 C07        -23.9930   -22.9040     1.5880 cc         1 UG2       0.465000
      7 C08        -22.6570   -23.4680     1.7960 ca         1 UG2      -0.125500
      8 C09        -22.0670   -23.3590     3.0550 ca         1 UG2      -0.101000
      9 C10        -20.8170   -23.9070     3.2970 ca         1 UG2      -0.135000
     10 C11        -20.1390   -24.5740     2.2850 ca         1 UG2      -0.119000
     11 C12        -20.7240   -24.6960     1.0320 ca         1 UG2      -0.135000
     12 C13        -21.9750   -24.1510     0.7870 ca         1 UG2      -0.101000
     13 C15        -26.0360   -22.3470     1.8920 cd         1 UG2       0.297200
     14 C16        -25.7220   -21.9360     0.6320 cc         1 UG2      -0.250600
     15 C17        -24.0300   -22.4060    -1.9500 ca         1 UG2      -0.123500
     16 C18        -23.2810   -22.0710    -3.0700 ca         1 UG2      -0.108000
     17 N06        -24.4120   -22.2910     0.4430 na         1 UG2      -0.120000
     18 N14        -24.9580   -22.9440     2.4750 nd         1 UG2      -0.665000
     19 O1         -21.6140   -21.7110    -5.2410 oh         1 UG2      -0.595800
     20 H1         -21.5060   -19.8370    -4.3560 h1         1 UG2       0.029700
     21 H2         -20.2450   -20.9580    -3.8690 h1         1 UG2       0.029700
     22 H3         -20.8660   -20.2470    -1.5680 ha         1 UG2       0.145000
     23 H4         -22.2070   -20.8040     0.4130 ha         1 UG2       0.149000
     24 H5         -22.5890   -22.8340     3.8450 ha         1 UG2       0.142000
     25 H6         -20.3690   -23.8090     4.2780 ha         1 UG2       0.132500
     26 H7         -19.1620   -25.0000     2.4730 ha         1 UG2       0.130000
     27 H8         -20.2090   -25.2250     0.2410 ha         1 UG2       0.132500
     28 H9         -22.4240   -24.2780    -0.1900 ha         1 UG2       0.142000
     29 H10        -26.9800   -22.2460     2.4050 h4         1 UG2       0.039100
     30 H11        -26.2850   -21.4160    -0.1250 h4         1 UG2       0.178000
     31 H12        -24.9110   -23.0280    -2.0510 ha         1 UG2       0.149000
     32 H13        -23.6000   -22.4300    -4.0390 ha         1 UG2       0.145000
     33 H14        -21.1780   -21.3470    -6.0160 ho         1 UG2       0.410000
@<TRIPOS>BOND
     1     1     2 1   
     2     1    19 1   
     3     1    20 1   
     4     1    21 1   
     5     2     3 ar  
     6     2    16 ar  
     7     3     4 ar  
     8     3    22 1   
     9     4     5 ar  
    10     4    23 1   
    11     5    15 ar  
    12     5    17 1   
    13     6     7 1   
    14     6    17 1   
    15     6    18 2   
    16     7     8 ar  
    17     7    12 ar  
    18     8     9 ar  
    19     8    24 1   
    20     9    10 ar  
    21     9    25 1   
    22    10    11 ar  
    23    10    26 1   
    24    11    12 ar  
    25    11    27 1   
    26    12    28 1   
    27    13    14 2   
    28    13    18 1   
    29    13    29 1   
    30    14    17 1   
    31    14    30 1   
    32    15    16 ar  
    33    15    31 1   
    34    16    32 1   
    35    19    33 1   
@<TRIPOS>SUBSTRUCTURE
     1 UG2         1 TEMP              0 ****  ****    0 ROOT
