@<TRIPOS>MOLECULE
UG2
   33    35     1     0     0
SMALL
No Charge or Current Charge


@<TRIPOS>ATOM
      1 C01        -21.4820   -20.8650    -4.2520 c3         1 UG2       0.208900
      2 C02        -22.2690   -21.2470    -3.0040 ca         1 UG2      -0.080300
      3 C03        -21.8020   -20.8790    -1.7270 ca         1 UG2      -0.090000
      4 C04        -22.5300   -21.2270    -0.5770 ca         1 UG2      -0.105500
      5 C05        -23.7310   -21.9560    -0.6890 ca         1 UG2      -0.009200
      6 C07        -23.9530   -22.8500     1.6120 cc         1 UG2       0.465000
      7 C08        -22.6180   -23.4490     1.7990 ca         1 UG2      -0.125500
      8 C09        -22.0310   -23.4700     3.0850 ca         1 UG2      -0.083000
      9 C10        -20.7790   -24.0730     3.2950 ca         1 UG2      -0.117000
     10 C11        -20.1040   -24.6840     2.2270 ca         1 UG2      -0.101000
     11 C12        -20.6910   -24.7040     0.9520 ca         1 UG2      -0.117000
     12 C13        -21.9430   -24.1020     0.7410 ca         1 UG2      -0.083000
     13 C15        -25.9910   -22.1880     1.9740 cd         1 UG2       0.231900
     14 C16        -25.7490   -21.8730     0.6610 cc         1 UG2      -0.218000
     15 C17        -24.2030   -22.3150    -1.9650 ca         1 UG2      -0.105500
     16 C18        -23.4750   -21.9660    -3.1160 ca         1 UG2      -0.090000
     17 N06        -24.4650   -22.3050     0.4470 na         1 UG2      -0.069300
     18 N14        -24.8830   -22.7830     2.5600 nd         1 UG2      -0.665000
     19 O1         -20.5510   -21.9000    -4.5890 oh         1 UG2      -0.658000
     20 H1         -22.1800   -20.6950    -5.0820 h1         1 UG2       0.029700
     21 H2         -20.9520   -19.9200    -4.0700 h1         1 UG2       0.029700
     22 H3         -20.8720   -20.3220    -1.6270 ha         1 UG2       0.127000
     23 H4         -22.1570   -20.9290     0.4010 ha         1 UG2       0.131000
     24 H5         -22.5420   -23.0050     3.9260 ha         1 UG2       0.124000
     25 H6         -20.3330   -24.0680     4.2870 ha         1 UG2       0.114500
     26 H7         -19.1360   -25.1530     2.3890 ha         1 UG2       0.112000
     27 H8         -20.1790   -25.1940     0.1270 ha         1 UG2       0.114500
     28 H9         -22.3880   -24.1590    -0.2500 ha         1 UG2       0.124000
     29 H10        -26.8980   -22.0060     2.5390 h4         1 UG2       0.039100
     30 H11        -26.3580   -21.3790    -0.0850 h4         1 UG2       0.160000
     31 H12        -25.1320   -22.8720    -2.0670 ha         1 UG2       0.131000
     32 H13        -23.8470   -22.2550    -4.0960 ha         1 UG2       0.127000
     33 H14        -20.0760   -21.6000    -5.3950 ho         1 UG2       0.449000
@<TRIPOS>BOND
     1     1     2 1   
     2     1    19 1   
     3     1    20 1   
     4     1    21 1   
     5     2     3 ar  
     6     2    16 ar  
     7     3     4 ar  
     8     3    22 1   
     9     4     5 ar  
    10     4    23 1   
    11     5    15 ar  
    12     5    17 1   
    13     6     7 1   
    14     6    17 1   
    15     6    18 2   
    16     7     8 ar  
    17     7    12 ar  
    18     8     9 ar  
    19     8    24 1   
    20     9    10 ar  
    21     9    25 1   
    22    10    11 ar  
    23    10    26 1   
    24    11    12 ar  
    25    11    27 1   
    26    12    28 1   
    27    13    14 2   
    28    13    18 1   
    29    13    29 1   
    30    14    17 1   
    31    14    30 1   
    32    15    16 ar  
    33    15    31 1   
    34    16    32 1   
    35    19    33 1   
@<TRIPOS>SUBSTRUCTURE
     1 UG2         1 TEMP              0 ****  ****    0 ROOT
