@<TRIPOS>MOLECULE
UG4
   24    25     1     0     0
SMALL
bcc


@<TRIPOS>ATOM
      1 C10         19.1820   -56.6520   -37.2910 ca         1 UG4      -0.136500
      2 N12         20.6140   -54.7820   -37.6510 nb         1 UG4      -0.653000
      3 C13         21.6560   -55.6040   -37.5860 ca         1 UG4       0.408200
      4 C15         20.2700   -57.5090   -37.2290 ca         1 UG4      -0.090000
      5 C02         16.8420   -57.0570   -38.0310 cc         1 UG4       0.118000
      6 C03         15.7770   -57.6900   -37.4190 cd         1 UG4       0.150800
      7 C04         14.4510   -57.8890   -37.9900 c          1 UG4       0.624600
      8 C08         17.3920   -57.8190   -36.0320 cc         1 UG4       0.401400
      9 C11         19.4030   -55.2950   -37.4990 ca         1 UG4       0.417200
     10 C14         21.5370   -56.9690   -37.3700 ca         1 UG4      -0.239300
     11 N01         16.9550   -56.4020   -39.2180 nv         1 UG4      -0.803200
     12 N05         13.5840   -58.5580   -37.2120 nt         1 UG4      -0.658000
     13 N07         16.1530   -58.1470   -36.1750 nd         1 UG4      -0.640000
     14 N09         17.8690   -57.1430   -37.1310 na         1 UG4      -0.171000
     15 O06         14.1620   -57.4710   -39.1130 o          1 UG4      -0.656100
     16 H1          22.6350   -55.1550   -37.7080 h4         1 UG4       0.027100
     17 H2          20.1270   -58.5720   -37.0760 ha         1 UG4       0.152000
     18 H3          18.0220   -58.0140   -35.1760 h5         1 UG4       0.062100
     19 H4          18.5650   -54.6070   -37.5390 h4         1 UG4       0.045100
     20 H5          22.4170   -57.5950   -37.3250 ha         1 UG4       0.150000
     21 H6          17.8460   -56.4680   -39.6890 hn         1 UG4       0.423300
     22 H7          16.1770   -56.5700   -39.8370 hn         1 UG4       0.423300
     23 H8          12.6510   -58.7490   -37.5360 hn         1 UG4       0.322000
     24 H9          13.8540   -58.8950   -36.3040 hn         1 UG4       0.322000
@<TRIPOS>BOND
     1     1     4 ar  
     2     1     9 ar  
     3     1    14 1   
     4     2     3 ar  
     5     2     9 ar  
     6     3    10 ar  
     7     3    16 1   
     8     4    10 ar  
     9     4    17 1   
    10     5     6 2   
    11     5    11 1   
    12     5    14 1   
    13     6     7 1   
    14     6    13 1   
    15     7    12 1   
    16     7    15 2   
    17     8    13 2   
    18     8    14 1   
    19     8    18 1   
    20     9    19 1   
    21    10    20 1   
    22    11    21 1   
    23    11    22 1   
    24    12    23 1   
    25    12    24 1   
@<TRIPOS>SUBSTRUCTURE
     1 UG4         1 TEMP              0 ****  ****    0 ROOT
