@<TRIPOS>MOLECULE
UG4
   24    25     1     0     0
SMALL
No Charge or Current Charge


@<TRIPOS>ATOM
      1 C10         19.1720   -56.7090   -37.3080 ca         1 UG4      -0.071200
      2 N12         20.5690   -54.7530   -37.7160 nb         1 UG4      -0.653000
      3 C13         21.6600   -55.5430   -37.5950 ca         1 UG4       0.342900
      4 C15         20.3160   -57.5190   -37.1750 ca         1 UG4      -0.072000
      5 C02         16.8380   -57.1150   -38.0160 cc         1 UG4       0.271000
      6 C03         15.7810   -57.7410   -37.3760 cd         1 UG4       0.085500
      7 C04         14.4120   -57.8350   -37.9900 c          1 UG4       0.557600
      8 C08         17.4860   -57.9360   -36.0270 cc         1 UG4       0.401400
      9 C11         19.3500   -55.3310   -37.5720 ca         1 UG4       0.351900
     10 C14         21.5780   -56.9200   -37.3250 ca         1 UG4      -0.156000
     11 N01         16.9550   -56.4940   -39.2370 nv         1 UG4      -1.052000
     12 N05         13.4980   -58.4770   -37.2280 nt         1 UG4      -0.591000
     13 N07         16.1980   -58.2470   -36.1330 nd         1 UG4      -0.640000
     14 N09         17.8940   -57.2570   -37.1500 na         1 UG4      -0.120300
     15 O06         14.0840   -57.3940   -39.0830 o          1 UG4      -0.656100
     16 H1          22.6280   -55.0580   -37.7150 h4         1 UG4       0.027100
     17 H2          20.2320   -58.5840   -36.9670 ha         1 UG4       0.134000
     18 H3          18.1440   -58.1520   -35.1940 h5         1 UG4       0.062100
     19 H4          18.4920   -54.6660   -37.6620 h4         1 UG4       0.045100
     20 H5          22.4860   -57.5090   -37.2340 ha         1 UG4       0.132000
     21 H6          17.8760   -56.3990   -39.6620 hn         1 UG4       0.478500
     22 H7          16.1610   -56.5480   -39.8780 hn         1 UG4       0.478500
     23 H8          12.5540   -58.5870   -37.5640 hn         1 UG4       0.322000
     24 H9          13.7780   -58.8400   -36.3280 hn         1 UG4       0.322000
@<TRIPOS>BOND
     1     1     4 ar  
     2     1     9 ar  
     3     1    14 1   
     4     2     3 ar  
     5     2     9 ar  
     6     3    10 ar  
     7     3    16 1   
     8     4    10 ar  
     9     4    17 1   
    10     5     6 2   
    11     5    11 1   
    12     5    14 1   
    13     6     7 1   
    14     6    13 1   
    15     7    12 1   
    16     7    15 2   
    17     8    13 2   
    18     8    14 1   
    19     8    18 1   
    20     9    19 1   
    21    10    20 1   
    22    11    21 1   
    23    11    22 1   
    24    12    23 1   
    25    12    24 1   
@<TRIPOS>SUBSTRUCTURE
     1 UG4         1 TEMP              0 ****  ****    0 ROOT
