@<TRIPOS>MOLECULE
UG5
   24    25     1     0     0
SMALL
No Charge or Current Charge


@<TRIPOS>ATOM
      1 C02         19.7910   -20.8550    -4.5000 c          1 UG5       0.583500
      2 C03         19.1260   -21.2040    -3.1960 ca         1 UG5      -0.197600
      3 C04         17.8750   -21.8550    -3.1700 ca         1 UG5      -0.043000
      4 C05         17.2660   -22.1740    -1.9440 ca         1 UG5      -0.129500
      5 C06         17.8960   -21.8500    -0.7250 ca         1 UG5       0.022800
      6 C08         17.9580   -22.5760     1.6240 cc         1 UG5       0.410400
      7 C10         15.8220   -22.5340     2.0470 cd         1 UG5       0.116300
      8 C11         14.5330   -22.6730     2.8480 c3         1 UG5       0.301700
      9 C15         15.9370   -22.1360     0.7330 cc         1 UG5      -0.143000
     10 C16         19.1470   -21.2010    -0.7540 ca         1 UG5      -0.129500
     11 C17         19.7570   -20.8790    -1.9790 ca         1 UG5      -0.043000
     12 F12         14.3570   -23.9350     3.3040 f          1 UG5      -0.109667
     13 F13         14.5200   -21.8560     3.9270 f          1 UG5      -0.109667
     14 F14         13.4400   -22.3670     2.1110 f          1 UG5      -0.109667
     15 N07         17.2890   -22.1700     0.4940 na         1 UG5      -0.072300
     16 N09         17.0770   -22.8060     2.5920 nd         1 UG5      -0.620000
     17 H1          20.7750   -20.3430    -4.4230 h4         1 UG5      -0.004800
     18 H4          17.3710   -22.1170    -4.0990 ha         1 UG5       0.134000
     19 H5          16.3060   -22.6850    -1.9490 ha         1 UG5       0.133500
     20 H6          19.0340   -22.6910     1.6750 h5         1 UG5       0.068100
     21 H7          15.1940   -21.8390     0.0030 h4         1 UG5       0.177000
     22 H8          19.6510   -20.9280     0.1710 ha         1 UG5       0.133500
     23 H9          20.7230   -20.3740    -1.9780 ha         1 UG5       0.134000
     24 O1          19.3000   -21.1060    -5.5970 o          1 UG5      -0.504100
@<TRIPOS>BOND
     1     1     2 1   
     2     1    17 1   
     3     1    24 2   
     4     2     3 ar  
     5     2    11 ar  
     6     3     4 ar  
     7     3    18 1   
     8     4     5 ar  
     9     4    19 1   
    10     5    10 ar  
    11     5    15 1   
    12     6    15 1   
    13     6    16 2   
    14     6    20 1   
    15     7     8 1   
    16     7     9 2   
    17     7    16 1   
    18     8    12 1   
    19     8    13 1   
    20     8    14 1   
    21     9    15 1   
    22     9    21 1   
    23    10    11 ar  
    24    10    22 1   
    25    11    23 1   
@<TRIPOS>SUBSTRUCTURE
     1 UG5         1 TEMP              0 ****  ****    0 ROOT
