@<TRIPOS>MOLECULE
UG5
   24    25     1     0     0
SMALL
abcg2


@<TRIPOS>ATOM
      1 C02         19.7710   -20.8150    -4.4280 c          1 UG5       0.583500
      2 C03         19.1080   -21.2010    -3.1710 ca         1 UG5      -0.197600
      3 C04         17.8810   -21.8640    -3.1710 ca         1 UG5      -0.043000
      4 C05         17.2790   -22.2140    -1.9800 ca         1 UG5      -0.129500
      5 C06         17.8960   -21.8850    -0.7750 ca         1 UG5       0.022800
      6 C08         17.8950   -22.6320     1.5840 cc         1 UG5       0.410400
      7 C10         15.8270   -22.5480     2.0180 cd         1 UG5       0.116300
      8 C11         14.6010   -22.6160     2.8440 c3         1 UG5       0.301700
      9 C15         15.9340   -22.1700     0.7150 cc         1 UG5      -0.143000
     10 C16         19.1150   -21.2180    -0.7600 ca         1 UG5      -0.129500
     11 C17         19.7200   -20.8890    -1.9610 ca         1 UG5      -0.043000
     12 F12         14.4830   -23.7920     3.4700 f          1 UG5      -0.109667
     13 F13         14.5880   -21.6780     3.8040 f          1 UG5      -0.109667
     14 F14         13.5050   -22.4370     2.1020 f          1 UG5      -0.109667
     15 N07         17.2730   -22.2210     0.4450 na         1 UG5      -0.072300
     16 N09         17.0490   -22.8370     2.5490 nd         1 UG5      -0.620000
     17 H1          20.7400   -20.3020    -4.2960 h4         1 UG5      -0.004800
     18 H4          17.4010   -22.1180    -4.1070 ha         1 UG5       0.134000
     19 H5          16.3400   -22.7530    -1.9870 ha         1 UG5       0.133500
     20 H6          18.9630   -22.7850     1.6360 h5         1 UG5       0.068100
     21 H7          15.2050   -21.8510    -0.0110 h4         1 UG5       0.177000
     22 H8          19.5800   -20.9370     0.1750 ha         1 UG5       0.133500
     23 H9          20.6700   -20.3690    -1.9520 ha         1 UG5       0.134000
     24 O1          19.3200   -21.0230    -5.5290 o          1 UG5      -0.504100
@<TRIPOS>BOND
     1     1     2 1   
     2     1    17 1   
     3     1    24 2   
     4     2     3 ar  
     5     2    11 ar  
     6     3     4 ar  
     7     3    18 1   
     8     4     5 ar  
     9     4    19 1   
    10     5    10 ar  
    11     5    15 1   
    12     6    15 1   
    13     6    16 2   
    14     6    20 1   
    15     7     8 1   
    16     7     9 2   
    17     7    16 1   
    18     8    12 1   
    19     8    13 1   
    20     8    14 1   
    21     9    15 1   
    22     9    21 1   
    23    10    11 ar  
    24    10    22 1   
    25    11    23 1   
@<TRIPOS>SUBSTRUCTURE
     1 UG5         1 TEMP              0 ****  ****    0 ROOT
