@<TRIPOS>MOLECULE
UG6
   22    21     1     0     0
SMALL
abcg2


@<TRIPOS>ATOM
      1 C5          24.0670    49.8930    17.3890 c          1 UG6       0.601100
      2 C6          25.3340    49.1570    17.0370 c3         1 UG6      -0.170100
      3 C8          22.7920    52.3050    18.8340 c          1 UG6       0.574100
      4 C1          22.4910    50.6630    20.6730 c3         1 UG6       0.068600
      5 C11         21.5370    54.2770    18.4740 c3         1 UG6       0.152900
      6 C2          22.6760    50.8140    19.1640 c3         1 UG6       0.075700
      7 N4          23.8310    50.0820    18.7070 ns         1 UG6      -0.497900
      8 O7          23.2890    50.3140    16.5320 o          1 UG6      -0.604100
      9 O9          23.8320    52.9070    18.7190 o          1 UG6      -0.474000
     10 S3          22.2080    48.8960    21.0850 sh         1 UG6      -0.437800
     11 H1          25.1130    48.4140    16.2730 hc         1 UG6       0.064033
     12 H2          26.0440    49.8730    16.6160 hc         1 UG6       0.064033
     13 H3          25.7940    48.6740    17.8980 hc         1 UG6       0.064033
     14 H4          23.3740    51.0230    21.1990 h1         1 UG6       0.075700
     15 H5          21.6260    51.2420    20.9860 h1         1 UG6       0.075700
     16 H6          20.4820    54.5260    18.4170 h1         1 UG6       0.052367
     17 H7          22.0160    54.8150    19.2910 h1         1 UG6       0.052367
     18 H8          22.0380    54.5060    17.5350 h1         1 UG6       0.052367
     19 H9          21.7890    50.4400    18.6520 h1         1 UG6       0.110700
     20 H10         24.5230    49.7910    19.3800 hn         1 UG6       0.328500
     21 H11         21.9570    49.0930    22.3900 hs         1 UG6       0.215800
     22 O10         21.5840    52.8540    18.7240 os         1 UG6      -0.443100
@<TRIPOS>BOND
     1     1     2 1   
     2     1     7 1   
     3     1     8 2   
     4     2    11 1   
     5     2    12 1   
     6     2    13 1   
     7     3     6 1   
     8     3     9 2   
     9     3    22 1   
    10     4     6 1   
    11     4    10 1   
    12     4    14 1   
    13     4    15 1   
    14     5    16 1   
    15     5    17 1   
    16     5    18 1   
    17     5    22 1   
    18     6     7 1   
    19     6    19 1   
    20     7    20 1   
    21    10    21 1   
@<TRIPOS>SUBSTRUCTURE
     1 UG6         1 TEMP              0 ****  ****    0 ROOT
