@<TRIPOS>MOLECULE
UG6
   22    21     1     0     0
SMALL
No Charge or Current Charge


@<TRIPOS>ATOM
      1 C5          24.0100    49.3070    17.5590 c          1 UG6       0.601100
      2 C6          25.4130    48.8130    17.2330 c3         1 UG6      -0.170100
      3 C8          22.7830    52.5610    18.7870 c          1 UG6       0.574100
      4 C1          22.4000    50.6050    20.3740 c3         1 UG6       0.068600
      5 C11         21.4400    54.5660    18.8160 c3         1 UG6       0.152900
      6 C2          22.7180    51.0190    18.9160 c3         1 UG6       0.075700
      7 N4          23.9630    50.3880    18.4090 ns         1 UG6      -0.497900
      8 O7          23.0070    48.7920    17.0880 o          1 UG6      -0.604100
      9 O9          23.8090    53.1930    18.5620 o          1 UG6      -0.474000
     10 S3          22.3530    48.7700    20.6780 sh         1 UG6      -0.437800
     11 H1          25.4120    47.9600    16.5460 hc         1 UG6       0.064033
     12 H2          26.0040    49.6480    16.8410 hc         1 UG6       0.064033
     13 H3          25.9330    48.5780    18.1690 hc         1 UG6       0.064033
     14 H4          23.1600    51.0350    21.0390 h1         1 UG6       0.075700
     15 H5          21.4290    51.0260    20.6650 h1         1 UG6       0.075700
     16 H6          20.3980    54.8850    18.9460 h1         1 UG6       0.052367
     17 H7          22.0450    55.0620    19.5860 h1         1 UG6       0.052367
     18 H8          21.7800    54.9110    17.8310 h1         1 UG6       0.052367
     19 H9          21.8760    50.7030    18.2870 h1         1 UG6       0.110700
     20 H10         24.8530    50.7600    18.7190 hn         1 UG6       0.328500
     21 H11         22.0670    48.8440    22.0020 hs         1 UG6       0.215800
     22 O10         21.5420    53.1330    18.9240 os         1 UG6      -0.443100
@<TRIPOS>BOND
     1     1     2 1   
     2     1     7 1   
     3     1     8 2   
     4     2    11 1   
     5     2    12 1   
     6     2    13 1   
     7     3     6 1   
     8     3     9 2   
     9     3    22 1   
    10     4     6 1   
    11     4    10 1   
    12     4    14 1   
    13     4    15 1   
    14     5    16 1   
    15     5    17 1   
    16     5    18 1   
    17     5    22 1   
    18     6     7 1   
    19     6    19 1   
    20     7    20 1   
    21    10    21 1   
@<TRIPOS>SUBSTRUCTURE
     1 UG6         1 TEMP              0 ****  ****    0 ROOT
