@<TRIPOS>MOLECULE
UG7
   67    71     1     0     0
SMALL
bcc


@<TRIPOS>ATOM
      1 CAA          5.9790    -3.5170     9.4570 ca         1 UG7      -0.132000
      2 CAB          6.1040    -2.3790     8.6760 ca         1 UG7      -0.109000
      3 CAC          6.6500    -1.2050     9.2010 ca         1 UG7      -0.005800
      4 CAD          7.0730    -1.2150    10.5310 ca         1 UG7      -0.108000
      5 CAE          6.9300    -2.3490    11.3270 ca         1 UG7      -0.125600
      6 CAF          6.3720    -3.5050    10.7860 ca         1 UG7      -0.073000
      7 CAG          6.5710     4.1740     8.7970 ca         1 UG7      -0.080300
      8 CAH          6.3450     3.4210     9.9630 ca         1 UG7      -0.144000
      9 CAI          6.4520     5.6800     8.8230 c3         1 UG7       0.155300
     10 CAJ          6.8920     2.1370     7.5980 ca         1 UG7      -0.046200
     11 CAK          6.6860     1.3710     8.7630 ca         1 UG7      -0.077800
     12 CAL          6.8460     3.5310     7.6040 ca         1 UG7      -0.127000
     13 CAM          6.4010     2.0430     9.9580 ca         1 UG7      -0.082000
     14 CAN          7.2280     1.6790     5.1650 c6         1 UG7       0.063000
     15 CAO          8.0440     0.6950     4.3350 c6         1 UG7      -0.104400
     16 CAP          8.1440     1.1870     2.9000 c6         1 UG7       0.227300
     17 CAQ          5.9740     2.3460     3.0990 c6         1 UG7       0.227300
     18 CAR          5.8480     1.8910     4.5430 c6         1 UG7      -0.104400
     19 CAS          8.7610     6.9340    11.5400 cy         1 UG7      -0.189700
     20 CAT          8.2580     8.3660    11.8270 cy         1 UG7       0.145800
     21 CAU         10.1650     7.5510    11.5780 cy         1 UG7       0.145800
     22 CAV          6.8400     1.9490    -0.3070 c3         1 UG7       0.576700
     23 CBE          7.3620    -2.3280    12.7460 cs         1 UG7       0.476000
     24 CBH          6.7830    -0.0080     8.3730 cc         1 UG7      -0.094400
     25 CBI          7.0310    -0.0030     7.0260 cd         1 UG7      -0.090100
     26 CBK          8.3590     6.3530    10.2010 c          1 UG7       0.689100
     27 FBB          6.2920     3.1280    -0.0490 f          1 UG7      -0.225300
     28 FBC          8.1590     2.0760    -0.2940 f          1 UG7      -0.225300
     29 FBD          6.4500     1.5390    -1.5030 f          1 UG7      -0.225300
     30 NAW          7.1180     1.2750     6.5550 na         1 UG7      -0.055400
     31 NAX          6.7980     1.3870     2.3610 n3         1 UG7      -0.804500
     32 NBF          8.4690    -1.6530    13.0050 nt         1 UG7      -0.566000
     33 NBJ          7.0310     6.2970     9.9930 ns         1 UG7      -0.577900
     34 NBM          9.5620     8.8780    11.3900 n6         1 UG7      -0.784200
     35 OAZ          7.0980    -0.4570     0.6920 o          1 UG7      -0.554300
     36 OBA          4.8750     0.7210     0.9040 o          1 UG7      -0.554300
     37 OBL          9.1670     5.9400     9.3840 o          1 UG7      -0.586100
     38 SAY          6.3200     0.7290     0.9750 s6         1 UG7       1.241900
     39 SBG          6.4780    -3.0860    13.9360 s          1 UG7      -0.576400
     40 H1           5.5570    -4.4170     9.0300 ha         1 UG7       0.138000
     41 H2           5.7540    -2.3970     7.6520 ha         1 UG7       0.131000
     42 H3           7.5110    -0.3170    10.9480 ha         1 UG7       0.133000
     43 H4           6.2570    -4.3860    11.4020 ha         1 UG7       0.160000
     44 H5           6.1210     3.9350    10.8900 ha         1 UG7       0.126000
     45 H6           6.9000     6.1000     7.9200 h1         1 UG7       0.056200
     46 H7           5.3990     5.9650     8.8070 h1         1 UG7       0.056200
     47 H8           7.0130     4.1080     6.7020 ha         1 UG7       0.133000
     48 H9           6.2080     1.4980    10.8730 ha         1 UG7       0.136000
     49 H10          7.7650     2.6330     5.1570 h1         1 UG7       0.071700
     50 H11          7.5780    -0.2930     4.3290 hc         1 UG7       0.069200
     51 H12          9.0500     0.5910     4.7470 hc         1 UG7       0.069200
     52 H13          8.6910     0.4690     2.2960 h1         1 UG7       0.071200
     53 H14          8.6850     2.1360     2.8560 h1         1 UG7       0.071200
     54 H15          6.4510     3.3290     3.0480 h1         1 UG7       0.071200
     55 H16          4.9910     2.4320     2.6430 h1         1 UG7       0.071200
     56 H17          5.2920     2.6480     5.1000 hc         1 UG7       0.069200
     57 H18          5.2780     0.9600     4.5880 hc         1 UG7       0.069200
     58 H19          8.5420     6.1960    12.3150 hc         1 UG7       0.076700
     59 H21          8.0480     8.5090    12.8910 h1         1 UG7       0.053950
     60 H22         10.6370     7.4060    12.5540 h1         1 UG7       0.053950
     61 H23         10.8670     7.2440    10.8020 h1         1 UG7       0.053950
     62 H24          7.1790    -0.8480     6.3720 h4         1 UG7       0.165000
     63 H25          8.8010    -1.5690    13.9530 hn         1 UG7       0.325000
     64 H26          9.0570    -1.2790    12.2760 hn         1 UG7       0.325000
     65 H27          6.4070     6.6220    10.7120 hn         1 UG7       0.313500
     66 H28          9.9480     9.6080    11.9750 hn         1 UG7       0.352800
     67 H20          7.4010     8.7300    11.2540 h1         1 UG7       0.053950
@<TRIPOS>BOND
     1     1     2 ar  
     2     1     6 ar  
     3     1    40 1   
     4     2     3 ar  
     5     2    41 1   
     6     3     4 ar  
     7     3    24 1   
     8     4     5 ar  
     9     4    42 1   
    10     5     6 ar  
    11     5    23 1   
    12     6    43 1   
    13     7     8 ar  
    14     7     9 1   
    15     7    12 ar  
    16     8    13 ar  
    17     8    44 1   
    18     9    33 1   
    19     9    45 1   
    20     9    46 1   
    21    10    11 ar  
    22    10    12 ar  
    23    10    30 1   
    24    11    13 ar  
    25    11    24 1   
    26    12    47 1   
    27    13    48 1   
    28    14    15 1   
    29    14    18 1   
    30    14    30 1   
    31    14    49 1   
    32    15    16 1   
    33    15    50 1   
    34    15    51 1   
    35    16    31 1   
    36    16    52 1   
    37    16    53 1   
    38    17    18 1   
    39    17    31 1   
    40    17    54 1   
    41    17    55 1   
    42    18    56 1   
    43    18    57 1   
    44    19    20 1   
    45    19    21 1   
    46    19    26 1   
    47    19    58 1   
    48    20    34 1   
    49    20    59 1   
    50    20    67 1   
    51    21    34 1   
    52    21    60 1   
    53    21    61 1   
    54    22    27 1   
    55    22    28 1   
    56    22    29 1   
    57    22    38 1   
    58    23    32 1   
    59    23    39 2   
    60    24    25 2   
    61    25    30 1   
    62    25    62 1   
    63    26    33 1   
    64    26    37 2   
    65    31    38 1   
    66    32    63 1   
    67    32    64 1   
    68    33    65 1   
    69    34    66 1   
    70    35    38 2   
    71    36    38 2   
@<TRIPOS>SUBSTRUCTURE
     1 UG7         1 TEMP              0 ****  ****    0 ROOT
