@<TRIPOS>MOLECULE
UG7
   67    71     1     0     0
SMALL
No Charge or Current Charge


@<TRIPOS>ATOM
      1 CAA          5.4090    -3.8210     9.5410 ca         1 UG7      -0.114000
      2 CAB          5.4350    -2.5950     8.8600 ca         1 UG7      -0.091000
      3 CAC          6.0960    -1.4890     9.4220 ca         1 UG7      -0.005800
      4 CAD          6.7420    -1.6290    10.6670 ca         1 UG7      -0.090000
      5 CAE          6.7280    -2.8600    11.3700 ca         1 UG7      -0.125600
      6 CAF          6.0480    -3.9530    10.7850 ca         1 UG7      -0.055000
      7 CAG          5.9730     3.8900     9.6050 ca         1 UG7      -0.080300
      8 CAH          5.7760     3.0110    10.6990 ca         1 UG7      -0.126000
      9 CAI          5.9470     5.3970     9.8210 c3         1 UG7       0.155300
     10 CAJ          6.2190     1.9690     8.1460 ca         1 UG7      -0.046200
     11 CAK          6.0430     1.1310     9.2160 ca         1 UG7      -0.077800
     12 CAL          6.1940     3.3650     8.3120 ca         1 UG7      -0.109000
     13 CAM          5.8050     1.6140    10.5100 ca         1 UG7      -0.064000
     14 CAN          6.6980     1.7800     5.6390 c6         1 UG7       0.092300
     15 CAO          8.1780     1.5420     5.2610 c6         1 UG7      -0.104400
     16 CAP          8.4780     2.0880     3.8480 c6         1 UG7       0.227300
     17 CAQ          6.1280     1.7330     3.1620 c6         1 UG7       0.227300
     18 CAR          5.7750     1.1730     4.5560 c6         1 UG7      -0.104400
     19 CAS          9.5060     6.8150     9.8180 cy         1 UG7      -0.189700
     20 CAT          9.0860     8.2490    10.2990 cy         1 UG7       0.145800
     21 CAU         10.2390     7.4990     8.6130 cy         1 UG7       0.145800
     22 CAV          7.8450     3.5260     0.8000 c3         1 UG7       0.102000
     23 CBE          7.4200    -3.0240    12.7120 cs         1 UG7       0.409000
     24 CBH          6.1250    -0.2110     8.7120 cc         1 UG7      -0.094400
     25 CBI          6.3540    -0.1410     7.3450 cd         1 UG7      -0.140100
     26 CBK          8.1290     6.4620     9.1070 c          1 UG7       0.622100
     27 FBB          6.5750     3.9650     0.9740 f          1 UG7      -0.104000
     28 FBC          8.6500     4.2840     1.5830 f          1 UG7      -0.104000
     29 FBD          8.1840     3.7830    -0.4870 f          1 UG7      -0.104000
     30 NAW          6.4010     1.2250     6.9820 na         1 UG7      -0.084700
     31 NAX          7.5600     1.4870     2.8430 n3         1 UG7      -0.804500
     32 NBF          8.0580    -1.9540    13.2250 nt         1 UG7      -0.499000
     33 NBJ          7.2920     5.9250    10.0660 ns         1 UG7      -0.510900
     34 NBM          9.5030     8.7690     8.9510 n6         1 UG7      -0.839400
     35 OAZ          9.4240     1.3250     1.0970 o          1 UG7      -0.483500
     36 OBA          7.0310     0.9570     0.3970 o          1 UG7      -0.483500
     37 OBL          7.7290     6.4970     7.9470 o          1 UG7      -0.586100
     38 SAY          8.0110     1.7210     1.1800 s6         1 UG7       1.211100
     39 SBG          7.4340    -4.4500    13.5850 s          1 UG7      -0.576400
     40 H1           4.8920    -4.6720     9.1050 ha         1 UG7       0.120000
     41 H2           4.9310    -2.5030     7.9010 ha         1 UG7       0.113000
     42 H3           7.2680    -0.7690    11.0690 ha         1 UG7       0.115000
     43 H4           6.0100    -4.9160    11.2880 ha         1 UG7       0.142000
     44 H5           5.6000     3.4120    11.6950 ha         1 UG7       0.108000
     45 H6           5.5010     5.8930     8.9490 h1         1 UG7       0.056200
     46 H7           5.3170     5.6330    10.6880 h1         1 UG7       0.056200
     47 H8           6.3400     4.0370     7.4700 ha         1 UG7       0.115000
     48 H9           5.6400     0.9380    11.3450 ha         1 UG7       0.118000
     49 H10          6.5200     2.8630     5.6570 h1         1 UG7       0.071700
     50 H11          8.4080     0.4680     5.2890 hc         1 UG7       0.069200
     51 H12          8.8370     2.0260     5.9930 hc         1 UG7       0.069200
     52 H13          9.5280     1.8600     3.6130 h1         1 UG7       0.071200
     53 H14          8.3810     3.1840     3.8630 h1         1 UG7       0.071200
     54 H15          5.9000     2.8090     3.1410 h1         1 UG7       0.071200
     55 H16          5.4700     1.2490     2.4250 h1         1 UG7       0.071200
     56 H17          4.7250     1.3920     4.7890 hc         1 UG7       0.069200
     57 H18          5.8740     0.0800     4.5340 hc         1 UG7       0.069200
     58 H19          9.9750     6.0700    10.4670 hc         1 UG7       0.076700
     59 H21          9.7130     8.5990    11.1290 h1         1 UG7       0.053950
     60 H22         11.3230     7.5540     8.7810 h1         1 UG7       0.053950
     61 H23         10.0710     7.0690     7.6180 h1         1 UG7       0.053950
     62 H24          6.5120    -0.9400     6.6280 h4         1 UG7       0.215000
     63 H25          8.5280    -2.0320    14.1160 hn         1 UG7       0.325000
     64 H26          8.0750    -1.0770    12.7290 hn         1 UG7       0.325000
     65 H27          7.6610     5.8670    11.0070 hn         1 UG7       0.313500
     66 H28         10.0460     9.6420     8.9220 hn         1 UG7       0.408000
     67 H20          8.0320     8.3930    10.5730 h1         1 UG7       0.053950
@<TRIPOS>BOND
     1     1     2 ar  
     2     1     6 ar  
     3     1    40 1   
     4     2     3 ar  
     5     2    41 1   
     6     3     4 ar  
     7     3    24 1   
     8     4     5 ar  
     9     4    42 1   
    10     5     6 ar  
    11     5    23 1   
    12     6    43 1   
    13     7     8 ar  
    14     7     9 1   
    15     7    12 ar  
    16     8    13 ar  
    17     8    44 1   
    18     9    33 1   
    19     9    45 1   
    20     9    46 1   
    21    10    11 ar  
    22    10    12 ar  
    23    10    30 1   
    24    11    13 ar  
    25    11    24 1   
    26    12    47 1   
    27    13    48 1   
    28    14    15 1   
    29    14    18 1   
    30    14    30 1   
    31    14    49 1   
    32    15    16 1   
    33    15    50 1   
    34    15    51 1   
    35    16    31 1   
    36    16    52 1   
    37    16    53 1   
    38    17    18 1   
    39    17    31 1   
    40    17    54 1   
    41    17    55 1   
    42    18    56 1   
    43    18    57 1   
    44    19    20 1   
    45    19    21 1   
    46    19    26 1   
    47    19    58 1   
    48    20    34 1   
    49    20    59 1   
    50    20    67 1   
    51    21    34 1   
    52    21    60 1   
    53    21    61 1   
    54    22    27 1   
    55    22    28 1   
    56    22    29 1   
    57    22    38 1   
    58    23    32 1   
    59    23    39 2   
    60    24    25 2   
    61    25    30 1   
    62    25    62 1   
    63    26    33 1   
    64    26    37 2   
    65    31    38 1   
    66    32    63 1   
    67    32    64 1   
    68    33    65 1   
    69    34    66 1   
    70    35    38 2   
    71    36    38 2   
@<TRIPOS>SUBSTRUCTURE
     1 UG7         1 TEMP              0 ****  ****    0 ROOT
