@<TRIPOS>MOLECULE
UG8
   32    33     1     0     0
SMALL
No Charge or Current Charge


@<TRIPOS>ATOM
      1 C10        -25.0440    17.8390     0.9980 c6         1 UG8       0.206800
      2 C13        -26.9260    17.0350    -0.9870 c6         1 UG8      -0.076900
      3 C17        -22.2340    20.8990     3.0740 ca         1 UG8      -0.082500
      4 C03        -23.1760    21.7820     3.6420 ca         1 UG8      -0.152600
      5 C04        -24.3660    22.0650     2.9360 ca         1 UG8      -0.082500
      6 C05        -24.6070    21.4770     1.6820 ca         1 UG8      -0.033000
      7 C06        -23.6610    20.5980     1.1190 ca         1 UG8      -0.272500
      8 C11        -26.3710    17.1910     1.4860 c6         1 UG8      -0.076900
      9 C12        -27.5050    17.2480     0.4290 c6         1 UG8      -0.065400
     10 C14        -25.8300    18.0840    -1.3300 c6         1 UG8       0.206800
     11 C16        -22.4730    20.3090     1.8210 ca         1 UG8      -0.033000
     12 N09        -25.2730    18.7730    -0.1330 n3         1 UG8      -0.742500
     13 O08        -24.5680    20.8760    -1.3470 o          1 UG8      -0.533000
     14 O15        -22.8490    19.0200    -0.9060 o          1 UG8      -0.533000
     15 S07        -23.9920    19.8370    -0.4850 sy         1 UG8       1.164600
     16 H1         -24.3500    17.0440     0.6860 h1         1 UG8       0.052450
     17 H2         -27.7270    17.0730    -1.7380 hc         1 UG8       0.048200
     18 H3         -26.4930    16.0270    -1.0500 hc         1 UG8       0.048200
     19 H4         -21.3120    20.6660     3.6040 ha         1 UG8       0.129000
     20 H5         -21.9420    22.1210     5.4670 h4         1 UG8      -0.004800
     21 H8         -25.1080    22.7410     3.3570 ha         1 UG8       0.129000
     22 H9         -25.5330    21.7010     1.1540 ha         1 UG8       0.138500
     23 H10        -26.7120    17.6960     2.4000 hc         1 UG8       0.048200
     24 H11        -28.0040    18.2260     0.4740 hc         1 UG8       0.048200
     25 H12        -28.2710    16.4930     0.6510 hc         1 UG8       0.048200
     26 H13        -26.2680    18.8320    -2.0070 h1         1 UG8       0.052450
     27 H14        -25.0330    17.5780    -1.8960 h1         1 UG8       0.052450
     28 H15        -21.7330    19.6280     1.4030 ha         1 UG8       0.138500
     29 O1         -23.6770    23.1800     5.5430 o          1 UG8      -0.502100
     30 H16        -24.5800    18.3400     1.8590 h1         1 UG8       0.052450
     31 H6         -26.1750    16.1480     1.7700 hc         1 UG8       0.048200
     32 C02        -22.9040    22.4050     4.9870 c          1 UG8       0.577500
@<TRIPOS>BOND
     1     1     8 1   
     2     1    12 1   
     3     1    16 1   
     4     1    30 1   
     5     2     9 1   
     6     2    10 1   
     7     2    17 1   
     8     2    18 1   
     9     3     4 ar  
    10     3    11 ar  
    11     3    19 1   
    12     4     5 ar  
    13     4    32 1   
    14     5     6 ar  
    15     5    21 1   
    16     6     7 ar  
    17     6    22 1   
    18     7    11 ar  
    19     7    15 1   
    20     8     9 1   
    21     8    23 1   
    22     8    31 1   
    23     9    24 1   
    24     9    25 1   
    25    10    12 1   
    26    10    26 1   
    27    10    27 1   
    28    11    28 1   
    29    12    15 1   
    30    13    15 2   
    31    14    15 2   
    32    20    32 1   
    33    29    32 2   
@<TRIPOS>SUBSTRUCTURE
     1 UG8         1 TEMP              0 ****  ****    0 ROOT
