@<TRIPOS>MOLECULE
UG8
   32    33     1     0     0
SMALL
abcg2


@<TRIPOS>ATOM
      1 C10        -26.8150    18.9460     0.9780 c6         1 UG8       0.206800
      2 C13        -25.6570    16.6290     0.2630 c6         1 UG8      -0.076900
      3 C17        -21.8910    20.6740     2.1070 ca         1 UG8      -0.082500
      4 C03        -22.4340    21.1890     3.2780 ca         1 UG8      -0.152600
      5 C04        -23.7840    21.5350     3.3320 ca         1 UG8      -0.082500
      6 C05        -24.5850    21.3600     2.2200 ca         1 UG8      -0.033000
      7 C06        -24.0310    20.8300     1.0580 ca         1 UG8      -0.272500
      8 C11        -27.8170    17.8720     0.5540 c6         1 UG8      -0.076900
      9 C12        -27.1200    16.6980    -0.1480 c6         1 UG8      -0.065400
     10 C14        -24.9100    17.8780    -0.1980 c6         1 UG8       0.206800
     11 C16        -22.6880    20.4900     0.9870 ca         1 UG8      -0.033000
     12 N09        -25.7790    19.0590    -0.0500 n3         1 UG8      -0.742500
     13 O08        -26.1390    21.5270    -0.3220 o          1 UG8      -0.533000
     14 O15        -24.2540    20.3730    -1.5140 o          1 UG8      -0.533000
     15 S07        -25.0930    20.5200    -0.3370 sy         1 UG8       1.164600
     16 H1         -26.3640    18.6980     1.9440 h1         1 UG8       0.052450
     17 H2         -25.1630    15.7610    -0.1740 hc         1 UG8       0.048200
     18 H3         -25.5780    16.5160     1.3470 hc         1 UG8       0.048200
     19 H4         -20.8400    20.4150     2.0650 ha         1 UG8       0.129000
     20 H5         -20.5070    21.0640     4.2910 h4         1 UG8      -0.004800
     21 H8         -24.2060    21.9450     4.2390 ha         1 UG8       0.129000
     22 H9         -25.6290    21.6410     2.2630 ha         1 UG8       0.138500
     23 H10        -28.5690    18.3110    -0.1030 hc         1 UG8       0.048200
     24 H11        -27.1800    16.8190    -1.2320 hc         1 UG8       0.048200
     25 H12        -27.6260    15.7600     0.0850 hc         1 UG8       0.048200
     26 H13        -24.6450    17.7760    -1.2490 h1         1 UG8       0.052450
     27 H14        -23.9820    17.9820     0.3760 h1         1 UG8       0.052450
     28 H15        -22.2590    20.0950     0.0760 ha         1 UG8       0.138500
     29 O1         -21.9320    21.7770     5.5230 o          1 UG8      -0.502100
     30 H16        -27.3210    19.9010     1.0970 h1         1 UG8       0.052450
     31 H6         -28.3400    17.5310     1.4500 hc         1 UG8       0.048200
     32 C02        -21.5580    21.3580     4.4550 c          1 UG8       0.577500
@<TRIPOS>BOND
     1     1     8 1   
     2     1    12 1   
     3     1    16 1   
     4     1    30 1   
     5     2     9 1   
     6     2    10 1   
     7     2    17 1   
     8     2    18 1   
     9     3     4 ar  
    10     3    11 ar  
    11     3    19 1   
    12     4     5 ar  
    13     4    32 1   
    14     5     6 ar  
    15     5    21 1   
    16     6     7 ar  
    17     6    22 1   
    18     7    11 ar  
    19     7    15 1   
    20     8     9 1   
    21     8    23 1   
    22     8    31 1   
    23     9    24 1   
    24     9    25 1   
    25    10    12 1   
    26    10    26 1   
    27    10    27 1   
    28    11    28 1   
    29    12    15 1   
    30    13    15 2   
    31    14    15 2   
    32    20    32 1   
    33    29    32 2   
@<TRIPOS>SUBSTRUCTURE
     1 UG8         1 TEMP              0 ****  ****    0 ROOT
