@<TRIPOS>MOLECULE
UG9
   46    48     1     0     0
SMALL
abcg2


@<TRIPOS>ATOM
      1 N           19.2150    12.6740    41.8070 n8         1 UG9      -1.012200
      2 CA          20.6010    12.3700    41.4820 c3         1 UG9       0.021500
      3 C           20.7680    10.8810    41.0690 c          1 UG9       0.719000
      4 OXT         21.9380    10.4570    40.9990 o          1 UG9      -0.725000
      5 CB          21.5170    12.7260    42.6530 c3         1 UG9      -0.043400
      6 O           19.7270    10.2460    40.8090 o          1 UG9      -0.725000
      7 C10         23.3100    23.6780    44.7660 ca         1 UG9       0.180900
      8 C12         23.0130    21.6180    45.4990 ca         1 UG9       0.160500
      9 C13         22.6990    22.0540    46.7930 ca         1 UG9      -0.236800
     10 C14         22.4380    20.8720    47.5520 cc         1 UG9      -0.007400
     11 C16         22.6010    19.8070    46.7210 cd         1 UG9      -0.117100
     12 C18         23.2470    19.4320    44.3290 c5         1 UG9       0.271300
     13 C19         24.4630    18.5180    44.5180 c5         1 UG9       0.084300
     14 C21         24.1460    17.4060    43.5250 c5         1 UG9       0.154300
     15 C23         22.6370    17.2730    43.6990 c5         1 UG9       0.166300
     16 C25         22.2200    16.2650    44.7630 c3         1 UG9       0.030600
     17 C27         21.4350    14.2020    43.0140 c3         1 UG9       0.085600
     18 C8          22.7310    23.4550    46.9780 ca         1 UG9       0.440900
     19 I15         21.8920    20.6890    49.5450 i          1 UG9      -0.142800
     20 N11         23.3230    22.3960    44.4630 nb         1 UG9      -0.227000
     21 N17         22.9520    20.2590    45.4710 na         1 UG9      -0.187400
     22 N9          23.0400    24.2380    45.9390 nb         1 UG9      -0.310000
     23 O20         25.6860    19.1240    44.2370 oh         1 UG9      -0.705000
     24 O22         24.4020    17.8050    42.2020 oh         1 UG9      -0.707000
     25 O24         22.1670    18.5740    44.0800 os         1 UG9      -0.453000
     26 S26         22.6320    14.5550    44.3380 ss         1 UG9      -0.462000
     27 H1          18.9830    13.6160    41.5210 hn         1 UG9       0.386500
     28 H2          18.6290    12.0470    41.2700 hn         1 UG9       0.386500
     29 H4          20.9510    12.9540    40.6120 h1         1 UG9       0.000700
     30 H6          21.2440    12.1230    43.5240 hc         1 UG9       0.061200
     31 H7          22.5450    12.4710    42.3900 hc         1 UG9       0.061200
     32 H9          22.4820    18.7550    46.9270 h4         1 UG9       0.236000
     33 H10         23.4180    20.1180    43.4930 h2         1 UG9       0.118700
     34 H11         24.4450    18.0970    45.5330 h1         1 UG9       0.048700
     35 H12         24.6640    16.4730    43.7750 h1         1 UG9       0.088700
     36 H13         22.1710    17.0090    42.7460 h1         1 UG9       0.103700
     37 H14         22.7240    16.4660    45.7120 h1         1 UG9       0.070200
     38 H15         21.1460    16.3410    44.9450 h1         1 UG9       0.070200
     39 H16         21.6580    14.8150    42.1380 h1         1 UG9       0.052200
     40 H17         20.4370    14.4640    43.3680 h1         1 UG9       0.052200
     41 H18         22.5260    25.0610    48.1960 hn         1 UG9       0.501500
     42 H19         22.2490    23.5550    48.9810 hn         1 UG9       0.501500
     43 H20         25.9270    19.7060    44.9650 ho         1 UG9       0.518000
     44 H21         25.3340    18.0340    42.1260 ho         1 UG9       0.522000
     45 N7          22.4690    24.0580    48.1410 nv         1 UG9      -1.078900
     46 H8          23.5510    24.3660    43.9620 h5         1 UG9       0.044100
@<TRIPOS>BOND
     1     1     2 1   
     2     1    27 1   
     3     1    28 1   
     4     2     3 1   
     5     2     5 1   
     6     2    29 1   
     7     3     4 1   
     8     3     6 1   
     9     5    17 1   
    10     5    30 1   
    11     5    31 1   
    12     7    20 ar  
    13     7    22 ar  
    14     7    46 1   
    15     8     9 ar  
    16     8    20 ar  
    17     8    21 1   
    18     9    10 1   
    19     9    18 ar  
    20    10    11 2   
    21    10    19 1   
    22    11    21 1   
    23    11    32 1   
    24    12    13 1   
    25    12    21 1   
    26    12    25 1   
    27    12    33 1   
    28    13    14 1   
    29    13    23 1   
    30    13    34 1   
    31    14    15 1   
    32    14    24 1   
    33    14    35 1   
    34    15    16 1   
    35    15    25 1   
    36    15    36 1   
    37    16    26 1   
    38    16    37 1   
    39    16    38 1   
    40    17    26 1   
    41    17    39 1   
    42    17    40 1   
    43    18    22 ar  
    44    18    45 1   
    45    23    43 1   
    46    24    44 1   
    47    41    45 1   
    48    42    45 1   
@<TRIPOS>SUBSTRUCTURE
     1 UG9         1 TEMP              0 ****  ****    0 ROOT
