@<TRIPOS>MOLECULE
UG9
   46    48     1     0     0
SMALL
No Charge or Current Charge


@<TRIPOS>ATOM
      1 N           19.5470    12.1660    43.0900 n8         1 UG9      -1.012200
      2 CA          20.9490    12.0950    42.5350 c3         1 UG9       0.021500
      3 C           21.5240    10.6330    42.2770 c          1 UG9       0.719000
      4 OXT         22.2200    10.1000    43.1330 o          1 UG9      -0.725000
      5 CB          21.9260    12.9550    43.3860 c3         1 UG9      -0.043400
      6 O           21.2430    10.0880    41.2160 o          1 UG9      -0.725000
      7 C10         25.0410    22.4040    46.3680 ca         1 UG9       0.180900
      8 C12         23.2420    21.2120    45.5850 ca         1 UG9       0.160500
      9 C13         22.6180    21.4180    46.7920 ca         1 UG9      -0.236800
     10 C14         21.3300    20.7930    46.7530 cc         1 UG9      -0.007400
     11 C16         21.2210    20.2290    45.4940 cd         1 UG9      -0.117100
     12 C18         22.6890    20.0310    43.3790 c5         1 UG9       0.271300
     13 C19         24.0760    19.3080    43.1520 c5         1 UG9       0.084300
     14 C21         23.6830    18.0350    42.3420 c5         1 UG9       0.154300
     15 C23         22.2450    17.7720    42.8830 c5         1 UG9       0.166300
     16 C25         22.1780    17.1100    44.2900 c3         1 UG9       0.030600
     17 C27         21.6070    14.4650    43.3860 c3         1 UG9       0.085600
     18 C8          23.2710    22.1490    47.7900 ca         1 UG9       0.440900
     19 I15         19.7890    20.6740    48.2070 i          1 UG9      -0.142800
     20 N11         24.4740    21.7100    45.3530 nb         1 UG9      -0.227000
     21 N17         22.4110    20.4640    44.7570 na         1 UG9      -0.187400
     22 N9          24.4970    22.6490    47.5840 nb         1 UG9      -0.310000
     23 O20         25.0360    20.0980    42.4170 oh         1 UG9      -0.705000
     24 O22         23.7130    18.3470    40.9430 oh         1 UG9      -0.707000
     25 O24         21.6710    19.0980    42.9290 os         1 UG9      -0.453000
     26 S26         22.8950    15.3980    44.3360 ss         1 UG9      -0.462000
     27 H1          19.2070    13.1340    43.0460 hn         1 UG9       0.386500
     28 H2          18.9130    11.6580    42.4600 hn         1 UG9       0.386500
     29 H4          20.8980    12.5680    41.5450 h1         1 UG9       0.000700
     30 H6          21.9410    12.5860    44.4180 hc         1 UG9       0.061200
     31 H7          22.9410    12.8240    42.9890 hc         1 UG9       0.061200
     32 H9          20.3850    19.6780    45.0740 h4         1 UG9       0.236000
     33 H10         22.6340    20.9410    42.7690 h2         1 UG9       0.118700
     34 H11         24.5020    19.0050    44.1190 h1         1 UG9       0.048700
     35 H12         24.3580    17.1960    42.5640 h1         1 UG9       0.088700
     36 H13         21.6650    17.1580    42.1810 h1         1 UG9       0.103700
     37 H14         22.7210    17.7240    45.0190 h1         1 UG9       0.070200
     38 H15         21.1300    17.0620    44.6120 h1         1 UG9       0.070200
     39 H16         21.5800    14.8360    42.3530 h1         1 UG9       0.052200
     40 H17         20.6270    14.6420    43.8470 h1         1 UG9       0.052200
     41 H18         23.3520    22.7150    49.7480 hn         1 UG9       0.501500
     42 H19         21.9150    21.8640    49.2890 hn         1 UG9       0.501500
     43 H20         25.4170    20.7590    43.0450 ho         1 UG9       0.518000
     44 H21         24.3020    19.1460    40.9290 ho         1 UG9       0.522000
     45 N7          22.7310    22.4010    49.0060 nv         1 UG9      -1.078900
     46 H8          26.0370    22.8070    46.1880 h5         1 UG9       0.044100
@<TRIPOS>BOND
     1     1     2 1   
     2     1    27 1   
     3     1    28 1   
     4     2     3 1   
     5     2     5 1   
     6     2    29 1   
     7     3     4 1   
     8     3     6 1   
     9     5    17 1   
    10     5    30 1   
    11     5    31 1   
    12     7    20 ar  
    13     7    22 ar  
    14     7    46 1   
    15     8     9 ar  
    16     8    20 ar  
    17     8    21 1   
    18     9    10 1   
    19     9    18 ar  
    20    10    11 2   
    21    10    19 1   
    22    11    21 1   
    23    11    32 1   
    24    12    13 1   
    25    12    21 1   
    26    12    25 1   
    27    12    33 1   
    28    13    14 1   
    29    13    23 1   
    30    13    34 1   
    31    14    15 1   
    32    14    24 1   
    33    14    35 1   
    34    15    16 1   
    35    15    25 1   
    36    15    36 1   
    37    16    26 1   
    38    16    37 1   
    39    16    38 1   
    40    17    26 1   
    41    17    39 1   
    42    17    40 1   
    43    18    22 ar  
    44    18    45 1   
    45    23    43 1   
    46    24    44 1   
    47    41    45 1   
    48    42    45 1   
@<TRIPOS>SUBSTRUCTURE
     1 UG9         1 TEMP              0 ****  ****    0 ROOT
