@<TRIPOS>MOLECULE
UGA
   56    58     1     0     0
SMALL
abcg2


@<TRIPOS>ATOM
      1 C1           0.2010     0.8340     4.5880 c6         1 UGA       0.419300
      2 C2           0.5040    -0.4740     5.3350 c6         1 UGA       0.092300
      3 O2           1.8610    -0.8260     5.3680 oh         1 UGA      -0.817000
      4 C3          -0.3680    -1.6040     4.7920 c6         1 UGA       0.131300
      5 O3          -0.1660    -2.7890     5.5260 oh         1 UGA      -0.684000
      6 C4          -1.8260    -1.1950     4.9040 c6         1 UGA       0.174300
      7 O4          -2.6480    -2.1800     4.3400 oh         1 UGA      -0.784000
      8 C5          -2.0340     0.1560     4.1970 c6         1 UGA       0.001300
      9 O5          -1.1470     1.1430     4.6930 os         1 UGA      -0.428000
     10 C6          -3.4830     0.6560     4.3570 c          1 UGA       0.729000
     11 O'P         -3.6810     1.8450     4.6170 o          1 UGA      -0.737500
     12 O'Q         -4.3600    -0.2350     4.2020 o          1 UGA      -0.737500
     13 O1B          2.9020    -0.1430     3.0170 o          1 UGA      -0.852500
     14 O2B          2.4860     2.4250     3.1170 o          1 UGA      -0.852500
     15 O3B          0.5310     0.7520     3.2190 os         1 UGA      -0.615400
     16 O3A          1.6480     1.0200     1.1100 os         1 UGA      -0.676800
     17 PA           2.5120     1.7820    -0.0730 p5         1 UGA       1.452800
     18 O1A          3.9760     1.6310     0.1860 o          1 UGA      -0.850000
     19 O2A          1.9160     3.1240    -0.3510 o          1 UGA      -0.850000
     20 O5D          2.0400     0.7190    -1.2350 os         1 UGA      -0.546400
     21 C5D          2.4130     1.0250    -2.5620 c3         1 UGA       0.218600
     22 C4D          2.4220    -0.2570    -3.3670 c5         1 UGA       0.162300
     23 O4D          1.1400    -0.8930    -3.3300 os         1 UGA      -0.393000
     24 C3D          2.7350    -0.0220    -4.8410 c5         1 UGA       0.101300
     25 O3D          3.3910    -1.1540    -5.3520 oh         1 UGA      -0.715000
     26 C2D          1.3290     0.1090    -5.4410 c5         1 UGA       0.065300
     27 O2D          1.2410    -0.2410    -6.7930 oh         1 UGA      -0.730000
     28 C1D          0.5750    -0.9220    -4.6020 c5         1 UGA       0.352700
     29 N1          -0.8690    -0.7550    -4.5220 n          1 UGA      -0.307000
     30 C10         -1.6790    -1.7760    -4.9330 cc         1 UGA       0.030600
     31 C7          -1.4120     0.4070    -4.0020 c          1 UGA       0.614000
     32 O6          -0.7490     1.3470    -3.6250 o          1 UGA      -0.492000
     33 N3          -2.7830     0.4250    -3.9550 ns         1 UGA      -0.469500
     34 C8          -3.6730    -0.5610    -4.3550 c          1 UGA       0.600200
     35 O7          -4.8750    -0.3900    -4.2570 o          1 UGA      -0.562000
     36 C9          -3.0210    -1.7330    -4.8820 cd         1 UGA      -0.415200
     37 H1'1         0.7430     1.6630     5.0580 h2         1 UGA       0.056700
     38 H2'1         0.2070    -0.2970     6.3770 h1         1 UGA       0.035700
     39 HO'2         2.2640    -0.7380     4.4700 ho         1 UGA       0.584000
     40 H3'1        -0.1300    -1.7640     3.7280 h1         1 UGA       0.066700
     41 HO'3         0.7860    -2.9300     5.5760 ho         1 UGA       0.431000
     42 H4'1        -2.0490    -1.0540     5.9770 h1         1 UGA       0.006700
     43 HO'4        -3.4990    -1.7040     4.1980 ho         1 UGA       0.557000
     44 H5'1        -1.8680    -0.0060     3.1210 h1         1 UGA       0.068700
     45 H5A1         1.7280     1.7560    -2.9990 h1         1 UGA       0.018700
     46 H5'2         3.4250     1.4470    -2.6140 h1         1 UGA       0.018700
     47 H4A1         3.1560    -0.9410    -2.9280 h1         1 UGA       0.100700
     48 H3A1         3.3290     0.8890    -4.9920 h1         1 UGA       0.056700
     49 HOA3         3.2480    -1.1690    -6.3060 ho         1 UGA       0.493000
     50 H2A1         0.9550     1.1190    -5.2580 h1         1 UGA       0.091700
     51 HOC2         1.4050     0.5420    -7.3280 ho         1 UGA       0.501000
     52 H1A1         0.7170    -1.9050    -5.0670 h2         1 UGA       0.049700
     53 H61         -1.1680    -2.6510    -5.3100 h4         1 UGA       0.192000
     54 HN3         -3.1810     1.2750    -3.5730 hn         1 UGA       0.345500
     55 H51         -3.6080    -2.5710    -5.2230 ha         1 UGA       0.202000
     56 PB           2.0570     1.0630     2.6860 p5         1 UGA       1.491800
@<TRIPOS>BOND
     1     1     2 1   
     2     1     9 1   
     3     1    15 1   
     4     1    37 1   
     5     2     3 1   
     6     2     4 1   
     7     2    38 1   
     8     3    39 1   
     9     4     5 1   
    10     4     6 1   
    11     4    40 1   
    12     5    41 1   
    13     6     7 1   
    14     6     8 1   
    15     6    42 1   
    16     7    43 1   
    17     8     9 1   
    18     8    10 1   
    19     8    44 1   
    20    10    11 1   
    21    10    12 1   
    22    13    56 1   
    23    14    56 1   
    24    15    56 1   
    25    16    17 1   
    26    16    56 1   
    27    17    18 1   
    28    17    19 1   
    29    17    20 1   
    30    20    21 1   
    31    21    22 1   
    32    21    45 1   
    33    21    46 1   
    34    22    23 1   
    35    22    24 1   
    36    22    47 1   
    37    23    28 1   
    38    24    25 1   
    39    24    26 1   
    40    24    48 1   
    41    25    49 1   
    42    26    27 1   
    43    26    28 1   
    44    26    50 1   
    45    27    51 1   
    46    28    29 1   
    47    28    52 1   
    48    29    30 1   
    49    29    31 1   
    50    30    36 2   
    51    30    53 1   
    52    31    32 2   
    53    31    33 1   
    54    33    34 1   
    55    33    54 1   
    56    34    35 2   
    57    34    36 1   
    58    36    55 1   
@<TRIPOS>SUBSTRUCTURE
     1 UGA         1 TEMP              0 ****  ****    0 ROOT
