@<TRIPOS>MOLECULE
UGA
   56    58     1     0     0
SMALL
No Charge or Current Charge


@<TRIPOS>ATOM
      1 C1           0.1160     0.9680     4.4790 c6         1 UGA       0.419300
      2 C2           0.8910     0.0620     5.5310 c6         1 UGA       0.092300
      3 O2           2.3360     0.2200     5.5830 oh         1 UGA      -0.817000
      4 C3           0.5280    -1.4270     5.2720 c6         1 UGA       0.131300
      5 O3           1.1960    -2.2630     6.2340 oh         1 UGA      -0.684000
      6 C4          -1.0140    -1.6230     5.3510 c6         1 UGA       0.174300
      7 O4          -1.3270    -3.0050     5.1220 oh         1 UGA      -0.784000
      8 C5          -1.7220    -0.6750     4.3430 c6         1 UGA       0.001300
      9 O5          -1.3030     0.7110     4.5960 os         1 UGA      -0.428000
     10 C6          -3.2730    -0.8780     4.4080 c          1 UGA       0.729000
     11 O'P         -3.9100    -0.0500     5.0530 o          1 UGA      -0.737500
     12 O'Q         -3.7870    -1.3690     3.4090 o          1 UGA      -0.737500
     13 O1B          2.9790     0.6220     3.1950 o          1 UGA      -0.852500
     14 O2B          1.8880     2.8410     2.8560 o          1 UGA      -0.852500
     15 O3B          0.4780     0.7670     3.1060 os         1 UGA      -0.615400
     16 O3A          1.6310     1.0020     1.0600 os         1 UGA      -0.676800
     17 PA           2.5500     1.8380     0.0930 p5         1 UGA       1.452800
     18 O1A          3.9770     1.9300     0.5210 o          1 UGA      -0.850000
     19 O2A          1.9720     3.1650    -0.2760 o          1 UGA      -0.850000
     20 O5D          2.4560     0.8320    -1.1620 os         1 UGA      -0.546400
     21 C5D          1.2600     0.7990    -1.9490 c3         1 UGA       0.218600
     22 C4D          1.0810    -0.6380    -2.5040 c5         1 UGA       0.162300
     23 O4D         -0.2630    -0.7730    -3.0450 os         1 UGA      -0.393000
     24 C3D          2.0630    -0.9940    -3.6790 c5         1 UGA       0.101300
     25 O3D          2.3080    -2.4000    -3.8160 oh         1 UGA      -0.715000
     26 C2D          1.2500    -0.4880    -4.9020 c5         1 UGA       0.065300
     27 O2D          1.7510    -1.0570    -6.1350 oh         1 UGA      -0.730000
     28 C1D         -0.1650    -0.9980    -4.4660 c5         1 UGA       0.352700
     29 N1          -1.1910    -0.2800    -5.2730 n          1 UGA      -0.307000
     30 C10         -1.7620    -0.9450    -6.3590 cc         1 UGA       0.030600
     31 C7          -1.6040     1.0260    -4.9200 c          1 UGA       0.614000
     32 O6          -1.1150     1.6810    -4.0160 o          1 UGA      -0.492000
     33 N3          -2.5930     1.5650    -5.6870 ns         1 UGA      -0.469500
     34 C8          -3.2280     1.0180    -6.7520 c          1 UGA       0.600200
     35 O7          -4.1050     1.6010    -7.3620 o          1 UGA      -0.562000
     36 C9          -2.7500    -0.3240    -7.0850 cd         1 UGA      -0.415200
     37 H1'1         0.2870     2.0230     4.7420 h2         1 UGA       0.056700
     38 H2'1         0.4830     0.3250     6.5190 h1         1 UGA       0.035700
     39 HO'2         2.6630     0.3200     4.6210 ho         1 UGA       0.584000
     40 H3'1         0.8600    -1.6870     4.2550 h1         1 UGA       0.066700
     41 HO'3         2.0140    -1.7560     6.4530 ho         1 UGA       0.431000
     42 H4'1        -1.3450    -1.3460     6.3630 h1         1 UGA       0.006700
     43 HO'4        -0.5900    -3.4890     5.5730 ho         1 UGA       0.557000
     44 H5'1        -1.4140    -0.9510     3.3250 h1         1 UGA       0.068700
     45 H5A1         0.3810     1.0520    -1.3420 h1         1 UGA       0.018700
     46 H5'2         1.3250     1.5170    -2.7770 h1         1 UGA       0.018700
     47 H4A1         1.1950    -1.3380    -1.6650 h1         1 UGA       0.100700
     48 H3A1         3.0140    -0.4520    -3.5820 h1         1 UGA       0.056700
     49 HOA3         2.3770    -2.5240    -4.7950 ho         1 UGA       0.493000
     50 H2A1         1.2710     0.6120    -4.9420 h1         1 UGA       0.091700
     51 HOC2         1.3330    -0.5660    -6.8830 ho         1 UGA       0.501000
     52 H1A1        -0.2690    -2.0710    -4.6670 h2         1 UGA       0.049700
     53 H61         -1.3610    -1.9390    -6.5400 h4         1 UGA       0.192000
     54 HN3         -2.8860     2.4940    -5.4330 hn         1 UGA       0.345500
     55 H51         -3.2290    -0.7930    -7.9360 ha         1 UGA       0.202000
     56 PB           1.8560     1.3790     2.5700 p5         1 UGA       1.491800
@<TRIPOS>BOND
     1     1     2 1   
     2     1     9 1   
     3     1    15 1   
     4     1    37 1   
     5     2     3 1   
     6     2     4 1   
     7     2    38 1   
     8     3    39 1   
     9     4     5 1   
    10     4     6 1   
    11     4    40 1   
    12     5    41 1   
    13     6     7 1   
    14     6     8 1   
    15     6    42 1   
    16     7    43 1   
    17     8     9 1   
    18     8    10 1   
    19     8    44 1   
    20    10    11 1   
    21    10    12 1   
    22    13    56 1   
    23    14    56 1   
    24    15    56 1   
    25    16    17 1   
    26    16    56 1   
    27    17    18 1   
    28    17    19 1   
    29    17    20 1   
    30    20    21 1   
    31    21    22 1   
    32    21    45 1   
    33    21    46 1   
    34    22    23 1   
    35    22    24 1   
    36    22    47 1   
    37    23    28 1   
    38    24    25 1   
    39    24    26 1   
    40    24    48 1   
    41    25    49 1   
    42    26    27 1   
    43    26    28 1   
    44    26    50 1   
    45    27    51 1   
    46    28    29 1   
    47    28    52 1   
    48    29    30 1   
    49    29    31 1   
    50    30    36 2   
    51    30    53 1   
    52    31    32 2   
    53    31    33 1   
    54    33    34 1   
    55    33    54 1   
    56    34    35 2   
    57    34    36 1   
    58    36    55 1   
@<TRIPOS>SUBSTRUCTURE
     1 UGA         1 TEMP              0 ****  ****    0 ROOT
