@<TRIPOS>MOLECULE
UGB
   56    58     1     0     0
SMALL
No Charge or Current Charge


@<TRIPOS>ATOM
      1 N1           2.5900    -1.0890     0.2080 n          1 UGB      -0.313000
      2 C2           3.0920    -2.2410     0.8380 c          1 UGB       0.619000
      3 O2           3.3460    -2.2800     2.0310 o          1 UGB      -0.608000
      4 N3           3.3240    -3.3170     0.0420 ns         1 UGB      -0.476500
      5 C4           3.1400    -3.4180    -1.2980 c          1 UGB       0.586200
      6 O4           3.3870    -4.4410    -1.9120 o          1 UGB      -0.577000
      7 C5           2.6330    -2.1960    -1.9110 cc         1 UGB      -0.384200
      8 C6           2.3650    -1.0630    -1.1730 cd         1 UGB       0.021600
      9 PA           0.3390     2.7670    -2.2990 p5         1 UGB       1.457800
     10 PB          -1.8190     1.2900    -2.2840 p5         1 UGB       1.463800
     11 C1          -3.0660     0.2340    -0.2080 c6         1 UGB       0.419300
     12 O1A          1.3940     1.9310    -2.9450 o          1 UGB      -0.856000
     13 O1B         -1.3830     0.7230    -3.5930 o          1 UGB      -0.839000
     14 C1D          2.2350     0.0640     1.0780 c5         1 UGB       0.345700
     15 C7          -2.4060     0.7860     1.1200 c6         1 UGB       0.106300
     16 O6          -1.7090     2.0470     0.9710 oh         1 UGB      -0.725000
     17 O2A         -0.3260     3.6940    -3.2620 o          1 UGB      -0.856000
     18 O2B         -3.0050     2.1860    -2.4150 o          1 UGB      -0.839000
     19 C2D          3.5470     0.8570     1.3770 c5         1 UGB       0.063300
     20 O2D          4.3980     0.2560     2.3790 oh         1 UGB      -0.709000
     21 C3          -1.4520    -0.2970     1.7190 c6         1 UGB       0.168300
     22 O3          -0.8760     0.1850     2.9480 oh         1 UGB      -0.678000
     23 O3A         -0.6660     1.9280    -1.4130 os         1 UGB      -0.690800
     24 O3B         -2.1550     0.0640    -1.3010 os         1 UGB      -0.600400
     25 C3D          2.9030     2.1790     1.8810 c5         1 UGB       0.095300
     26 O3D          2.4410     2.0260     3.2300 oh         1 UGB      -0.718000
     27 C8          -2.2040    -1.6630     1.9100 c6         1 UGB       0.172300
     28 O7          -3.2920    -1.5540     2.8540 oh         1 UGB      -0.788000
     29 C4D          1.7310     2.3560     0.8480 c5         1 UGB       0.154300
     30 O4D          1.3990     1.0150     0.3960 os         1 UGB      -0.409000
     31 C9          -2.7620    -2.0890     0.5310 c6         1 UGB      -0.005700
     32 O5          -3.6830    -1.0520     0.0500 os         1 UGB      -0.449000
     33 C5D          2.1340     3.2440    -0.3630 c3         1 UGB       0.219600
     34 O5D          0.9820     3.6610    -1.1190 os         1 UGB      -0.550400
     35 C10         -3.3770    -3.5260     0.6010 c          1 UGB       0.729000
     36 H5           2.4770    -2.2410    -2.9830 ha         1 UGB       0.262000
     37 H6           1.9800    -0.1290    -1.5840 h4         1 UGB       0.307000
     38 H1          -3.8670     0.9280    -0.5070 h2         1 UGB       0.053700
     39 H1D          1.7460    -0.3030     1.9900 h2         1 UGB       0.091700
     40 HO2         -1.1930     1.9850     0.1180 ho         1 UGB       0.479000
     41 H2D          4.1070     1.0270     0.4450 h1         1 UGB       0.076700
     42 HO2D         4.2010    -0.7210     2.3740 ho         1 UGB       0.495000
     43 HO3         -0.8170     1.1570     2.8180 ho         1 UGB       0.422000
     44 H3D          3.6190     3.0110     1.8240 h1         1 UGB       0.050700
     45 HO3D         3.1320     1.4670     3.6620 ho         1 UGB       0.500000
     46 H4          -1.4820    -2.4190     2.2520 h1         1 UGB       0.014700
     47 HO4         -4.0950    -1.3850     2.3030 ho         1 UGB       0.559000
     48 H4D          0.8570     2.8100     1.3320 h1         1 UGB       0.090700
     49 H7          -1.9220    -2.1670    -0.1750 h1         1 UGB       0.079700
     50 H5D          2.6450     4.1360     0.0200 h1         1 UGB       0.008200
     51 H5DA         2.8560     2.7050    -0.9900 h1         1 UGB       0.008200
     52 HN3          3.6840    -4.1370     0.5030 hn         1 UGB       0.310500
     53 H2          -3.2260     0.9370     1.8360 h1         1 UGB       0.028700
     54 O'P         -2.7140    -4.4030     0.0620 o          1 UGB      -0.726500
     55 O'Q         -4.6000    -3.6070     0.5940 o          1 UGB      -0.726500
     56 H3          -0.6510    -0.4710     0.9860 h1         1 UGB       0.066700
@<TRIPOS>BOND
     1     1     2 1   
     2     1     8 1   
     3     1    14 1   
     4     2     3 2   
     5     2     4 1   
     6     4     5 1   
     7     4    52 1   
     8     5     6 2   
     9     5     7 1   
    10     7     8 2   
    11     7    36 1   
    12     8    37 1   
    13     9    12 1   
    14     9    17 1   
    15     9    23 1   
    16     9    34 1   
    17    10    13 1   
    18    10    18 1   
    19    10    23 1   
    20    10    24 1   
    21    11    15 1   
    22    11    24 1   
    23    11    32 1   
    24    11    38 1   
    25    14    19 1   
    26    14    30 1   
    27    14    39 1   
    28    15    16 1   
    29    15    21 1   
    30    15    53 1   
    31    16    40 1   
    32    19    20 1   
    33    19    25 1   
    34    19    41 1   
    35    20    42 1   
    36    21    22 1   
    37    21    27 1   
    38    21    56 1   
    39    22    43 1   
    40    25    26 1   
    41    25    29 1   
    42    25    44 1   
    43    26    45 1   
    44    27    28 1   
    45    27    31 1   
    46    27    46 1   
    47    28    47 1   
    48    29    30 1   
    49    29    33 1   
    50    29    48 1   
    51    31    32 1   
    52    31    35 1   
    53    31    49 1   
    54    33    34 1   
    55    33    50 1   
    56    33    51 1   
    57    35    54 1   
    58    35    55 1   
@<TRIPOS>SUBSTRUCTURE
     1 UGB         1 TEMP              0 ****  ****    0 ROOT
