@<TRIPOS>MOLECULE
UGB
   56    58     1     0     0
SMALL
abcg2


@<TRIPOS>ATOM
      1 N1           4.5340    -0.6140     0.7710 n          1 UGB      -0.313000
      2 C2           5.3580    -1.5600     1.3480 c          1 UGB       0.619000
      3 O2           6.2470    -1.2860     2.1270 o          1 UGB      -0.608000
      4 N3           5.0910    -2.8500     0.9770 ns         1 UGB      -0.476500
      5 C4           4.1180    -3.3070     0.1000 c          1 UGB       0.586200
      6 O4           4.0080    -4.4970    -0.1330 o          1 UGB      -0.577000
      7 C5           3.3040    -2.2510    -0.4450 cc         1 UGB      -0.384200
      8 C6           3.5410    -0.9750    -0.0960 cd         1 UGB       0.021600
      9 PA           0.5000     1.6830    -1.3560 p5         1 UGB       1.457800
     10 PB          -2.3170     1.2210    -0.9760 p5         1 UGB       1.463800
     11 C1          -4.1260     0.4130     0.7690 c6         1 UGB       0.419300
     12 O1A          1.1570     0.3680    -1.6590 o          1 UGB      -0.856000
     13 O1B         -2.2220     0.3540    -2.1880 o          1 UGB      -0.839000
     14 C1D          4.7690     0.7940     1.0780 c5         1 UGB       0.345700
     15 C7          -4.2530    -0.3940     2.0640 c6         1 UGB       0.106300
     16 O6          -3.2950    -0.0170     3.0230 oh         1 UGB      -0.725000
     17 O2A          0.1850     2.6340    -2.4670 o          1 UGB      -0.856000
     18 O2B         -3.0700     2.5130    -0.9890 o          1 UGB      -0.839000
     19 C2D          5.5070     1.5500    -0.0240 c5         1 UGB       0.063300
     20 O2D          6.8830     1.3390     0.0870 oh         1 UGB      -0.709000
     21 C3          -4.0770    -1.8790     1.7760 c6         1 UGB       0.168300
     22 O3          -4.2730    -2.6630     2.9290 oh         1 UGB      -0.678000
     23 O3A         -0.7970     1.4720    -0.3810 os         1 UGB      -0.690800
     24 O3B         -2.8060     0.3210     0.3190 os         1 UGB      -0.600400
     25 C3D          5.0500     2.9850     0.2550 c5         1 UGB       0.095300
     26 O3D          5.7490     3.5340     1.3410 oh         1 UGB      -0.718000
     27 C8          -5.0630    -2.3210     0.7050 c6         1 UGB       0.172300
     28 O7          -6.3670    -2.3000     1.2250 oh         1 UGB      -0.788000
     29 C4D          3.5960     2.7560     0.6490 c5         1 UGB       0.154300
     30 O4D          3.5420     1.4430     1.2220 os         1 UGB      -0.409000
     31 C9          -4.9190    -1.4190    -0.5220 c6         1 UGB      -0.005700
     32 O5          -5.0430    -0.0420    -0.1780 os         1 UGB      -0.449000
     33 C5D          2.6760     2.8650    -0.5530 c3         1 UGB       0.219600
     34 O5D          1.3770     2.4610    -0.1950 os         1 UGB      -0.550400
     35 C10         -5.9970    -1.6680    -1.6070 c          1 UGB       0.729000
     36 H5           2.4980    -2.4850    -1.1230 ha         1 UGB       0.262000
     37 H6           2.9120    -0.1870    -0.4910 h4         1 UGB       0.307000
     38 H1          -4.3950     1.4600     0.9520 h2         1 UGB       0.053700
     39 H1D          5.3470     0.8170     2.0050 h2         1 UGB       0.091700
     40 HO2         -3.5580     0.8220     3.4120 ho         1 UGB       0.479000
     41 H2D          5.1270     1.2320    -1.0040 h1         1 UGB       0.076700
     42 HO2D         7.3050     1.5970    -0.7390 ho         1 UGB       0.495000
     43 HO3         -3.6540    -2.3560     3.5990 ho         1 UGB       0.422000
     44 H3D          5.1280     3.6210    -0.6370 h1         1 UGB       0.050700
     45 HO3D         6.6800     3.3050     1.2390 ho         1 UGB       0.500000
     46 H4          -4.7800    -3.3380     0.3840 h1         1 UGB       0.014700
     47 HO4         -6.9080    -2.4220     0.4130 ho         1 UGB       0.559000
     48 H4D          3.2810     3.4710     1.4160 h1         1 UGB       0.090700
     49 H7          -3.9360    -1.6050    -0.9720 h1         1 UGB       0.079700
     50 H5D          2.6790     3.9100    -0.8840 h1         1 UGB       0.008200
     51 H5DA         3.0750     2.2720    -1.3850 h1         1 UGB       0.008200
     52 HN3          5.6960    -3.5490     1.3900 hn         1 UGB       0.310500
     53 H2          -5.2720    -0.2300     2.4400 h1         1 UGB       0.028700
     54 O'P         -5.8310    -1.1010    -2.6910 o          1 UGB      -0.726500
     55 O'Q         -6.9620    -2.4160    -1.2980 o          1 UGB      -0.726500
     56 H3          -3.0650    -2.0350     1.3730 h1         1 UGB       0.066700
@<TRIPOS>BOND
     1     1     2 1   
     2     1     8 1   
     3     1    14 1   
     4     2     3 2   
     5     2     4 1   
     6     4     5 1   
     7     4    52 1   
     8     5     6 2   
     9     5     7 1   
    10     7     8 2   
    11     7    36 1   
    12     8    37 1   
    13     9    12 1   
    14     9    17 1   
    15     9    23 1   
    16     9    34 1   
    17    10    13 1   
    18    10    18 1   
    19    10    23 1   
    20    10    24 1   
    21    11    15 1   
    22    11    24 1   
    23    11    32 1   
    24    11    38 1   
    25    14    19 1   
    26    14    30 1   
    27    14    39 1   
    28    15    16 1   
    29    15    21 1   
    30    15    53 1   
    31    16    40 1   
    32    19    20 1   
    33    19    25 1   
    34    19    41 1   
    35    20    42 1   
    36    21    22 1   
    37    21    27 1   
    38    21    56 1   
    39    22    43 1   
    40    25    26 1   
    41    25    29 1   
    42    25    44 1   
    43    26    45 1   
    44    27    28 1   
    45    27    31 1   
    46    27    46 1   
    47    28    47 1   
    48    29    30 1   
    49    29    33 1   
    50    29    48 1   
    51    31    32 1   
    52    31    35 1   
    53    31    49 1   
    54    33    34 1   
    55    33    50 1   
    56    33    51 1   
    57    35    54 1   
    58    35    55 1   
@<TRIPOS>SUBSTRUCTURE
     1 UGB         1 TEMP              0 ****  ****    0 ROOT
