@<TRIPOS>MOLECULE
UGC
   14    13     1     0     0
SMALL
No Charge or Current Charge


@<TRIPOS>ATOM
      1 O3          -2.3360    -0.4520    -0.6470 o          1 UGC      -0.709500
      2 C3          -1.5530    -0.2930     0.2840 c          1 UGC       0.684000
      3 O4          -1.6590    -0.8770     1.3560 o          1 UGC      -0.709500
      4 C2          -0.3790     0.7610     0.0940 c3         1 UGC       0.173700
      5 O2          -0.7730     1.8810    -0.7230 oh         1 UGC      -0.707000
      6 N2           0.7820     0.1280    -0.5290 ns         1 UGC      -0.486900
      7 C1           1.8760    -0.3150     0.1530 c          1 UGC       0.632100
      8 O1           2.0240    -0.2290     1.3570 o          1 UGC      -0.665100
      9 N1           2.8050    -0.8730    -0.6370 nt         1 UGC      -0.613000
     10 H2          -0.0790     1.1350     1.0800 h2         1 UGC       0.066700
     11 H3          -1.5010     1.5360    -1.2930 ho         1 UGC       0.473000
     12 H4           0.7760    -0.0040    -1.5300 hn         1 UGC       0.295500
     13 H5           2.6600    -0.9320    -1.6330 hn         1 UGC       0.282500
     14 H6           3.6520    -1.2310    -0.2210 hn         1 UGC       0.282500
@<TRIPOS>BOND
     1     1     2 1   
     2     2     3 1   
     3     2     4 1   
     4     4     5 1   
     5     4     6 1   
     6     4    10 1   
     7     5    11 1   
     8     6     7 1   
     9     6    12 1   
    10     7     8 2   
    11     7     9 1   
    12     9    13 1   
    13     9    14 1   
@<TRIPOS>SUBSTRUCTURE
     1 UGC         1 TEMP              0 ****  ****    0 ROOT
