@<TRIPOS>MOLECULE
UGC
   14    13     1     0     0
SMALL
bcc


@<TRIPOS>ATOM
      1 O3          -2.6090     0.3850    -0.6220 o          1 UGC      -0.814800
      2 C3          -1.7170    -0.2330    -0.0010 c          1 UGC       0.894600
      3 O4          -1.7710    -1.3670     0.4910 o          1 UGC      -0.814800
      4 C2          -0.3870     0.5570     0.1610 c3         1 UGC       0.150500
      5 O2          -0.5070     1.8020    -0.4630 oh         1 UGC      -0.644800
      6 N2           0.6970    -0.2270    -0.3600 ns         1 UGC      -0.553900
      7 C1           1.9880    -0.0220     0.0150 c          1 UGC       0.766100
      8 O1           2.3120     0.7550     0.9060 o          1 UGC      -0.665100
      9 N1           2.9080    -0.7360    -0.6980 nt         1 UGC      -0.680000
     10 H2          -0.1970     0.6990     1.2300 h2         1 UGC       0.066700
     11 H3          -1.3990     1.7550    -0.8570 ho         1 UGC       0.434000
     12 H4           0.5250    -0.7850    -1.1810 hn         1 UGC       0.295500
     13 H5           2.6200    -1.5570    -1.2060 hn         1 UGC       0.282500
     14 H6           3.8320    -0.7920    -0.3040 hn         1 UGC       0.282500
@<TRIPOS>BOND
     1     1     2 1   
     2     2     3 1   
     3     2     4 1   
     4     4     5 1   
     5     4     6 1   
     6     4    10 1   
     7     5    11 1   
     8     6     7 1   
     9     6    12 1   
    10     7     8 2   
    11     7     9 1   
    12     9    13 1   
    13     9    14 1   
@<TRIPOS>SUBSTRUCTURE
     1 UGC         1 TEMP              0 ****  ****    0 ROOT
