@<TRIPOS>MOLECULE
UGD
   36    38     1     0     0
SMALL
No Charge or Current Charge


@<TRIPOS>ATOM
      1 N1           6.4210    -0.1150    17.5670 nb         1 UGD      -0.170500
      2 N3          14.0570     4.3320    22.1690 ns         1 UGD      -0.554900
      3 C4           5.3880     0.7490    17.6730 ca         1 UGD       0.123900
      4 C5           6.9390    -0.5780    18.7220 ca         1 UGD       0.125900
      5 C6          10.7360     0.2220    21.7860 ca         1 UGD      -0.009000
      6 C7          11.8350    -0.5510    21.3700 ca         1 UGD      -0.174000
      7 C8          13.1490    -0.1140    21.6010 ca         1 UGD      -0.069000
      8 C10         12.2880     1.8970    22.6710 ca         1 UGD       0.123100
      9 C13         14.0990     5.5860    22.6260 c          1 UGD       0.575000
     10 O2          14.5250     6.5440    22.0050 o          1 UGD      -0.510000
     11 C12         13.5920     5.2220    24.0840 cy         1 UGD      -0.184400
     12 C11         13.6980     3.7890    23.3930 cy         1 UGD       0.325700
     13 O1          12.4500     3.1030    23.3230 os         1 UGD      -0.356100
     14 C9          13.3800     1.1070    22.2530 ca         1 UGD      -0.159000
     15 C14         10.9760     1.4500    22.4410 ca         1 UGD      -0.143000
     16 N2           9.4360    -0.2890    21.5170 ns         1 UGD      -0.148000
     17 C            8.1630     0.2070    21.7710 c          1 UGD       0.605100
     18 O            7.9340     1.2780    22.3200 o          1 UGD      -0.560100
     19 C2           6.4270    -0.1810    19.9740 ca         1 UGD      -0.185300
     20 N            4.8260     1.1950    18.8160 nb         1 UGD      -0.170500
     21 C3           5.3500     0.7270    19.9680 ca         1 UGD       0.125900
     22 H2           4.9680     1.1250    16.7420 h5         1 UGD       0.052100
     23 H3           7.7740    -1.2730    18.6420 h4         1 UGD       0.025100
     24 H4          11.6720    -1.5010    20.8640 ha         1 UGD       0.112000
     25 H5          13.9900    -0.7250    21.2770 ha         1 UGD       0.118000
     26 H6          12.5940     5.6190    24.2840 hc         1 UGD       0.093200
     27 H7          14.3250     5.4690    24.8550 hc         1 UGD       0.093200
     28 H8          14.4430     3.1160    23.8300 h2         1 UGD       0.058700
     29 H9          14.4050     1.4210    22.4250 ha         1 UGD       0.126000
     30 H10         10.1620     2.0790    22.7810 ha         1 UGD       0.165000
     31 H11          9.4420    -1.1850    21.0480 hn         1 UGD       0.150000
     32 H14          4.9010     1.0860    20.8920 h4         1 UGD       0.025100
     33 C1           7.0240    -0.7020    21.2820 c3         1 UGD      -0.105100
     34 H1          14.8000     3.9920    21.5720 hn         1 UGD       0.334500
     35 H12          6.2450    -0.7280    22.0530 hc         1 UGD       0.069700
     36 H13          7.4050    -1.7170    21.1210 hc         1 UGD       0.069700
@<TRIPOS>BOND
     1     1     3 ar  
     2     1     4 ar  
     3     2     9 1   
     4     2    12 1   
     5     2    34 1   
     6     3    20 ar  
     7     3    22 1   
     8     4    19 ar  
     9     4    23 1   
    10     5     6 ar  
    11     5    15 ar  
    12     5    16 1   
    13     6     7 ar  
    14     6    24 1   
    15     7    14 ar  
    16     7    25 1   
    17     8    13 1   
    18     8    14 ar  
    19     8    15 ar  
    20     9    10 2   
    21     9    11 1   
    22    11    12 1   
    23    11    26 1   
    24    11    27 1   
    25    12    13 1   
    26    12    28 1   
    27    14    29 1   
    28    15    30 1   
    29    16    17 1   
    30    16    31 1   
    31    17    18 2   
    32    17    33 1   
    33    19    21 ar  
    34    19    33 1   
    35    20    21 ar  
    36    21    32 1   
    37    33    35 1   
    38    33    36 1   
@<TRIPOS>SUBSTRUCTURE
     1 UGD         1 TEMP              0 ****  ****    0 ROOT
