@<TRIPOS>MOLECULE
UGD
   36    38     1     0     0
SMALL
bcc


@<TRIPOS>ATOM
      1 N1           6.0190     1.0590    17.5790 nb         1 UGD      -0.696500
      2 N3          12.7820     4.1780    21.7390 ns         1 UGD      -0.621900
      3 C4           5.1080     1.7320    18.2620 ca         1 UGD       0.649900
      4 C5           6.8430     0.2940    18.2850 ca         1 UGD       0.454200
      5 C6          11.0770    -0.0680    22.0770 ca         1 UGD       0.083600
      6 C7          12.0840    -1.0210    22.2470 ca         1 UGD      -0.192000
      7 C8          13.2610    -0.6880    22.8940 ca         1 UGD      -0.087000
      8 C10         12.4610     1.5350    23.2090 ca         1 UGD       0.123100
      9 C13         12.8370     5.4730    22.1350 c          1 UGD       0.717500
     10 O2          12.5390     6.5060    21.5880 o          1 UGD      -0.585500
     11 C12         13.4540     5.0860    23.4750 cy         1 UGD      -0.184400
     12 C11         13.4170     3.6510    22.9280 cy         1 UGD       0.302500
     13 O1          12.6120     2.8040    23.7040 os         1 UGD      -0.332900
     14 C9          13.4660     0.5950    23.3830 ca         1 UGD      -0.177000
     15 C14         11.2730     1.2260    22.5590 ca         1 UGD      -0.161000
     16 N2           9.9210    -0.4910    21.4150 ns         1 UGD      -0.474100
     17 C            8.7950     0.2020    21.1190 c          1 UGD       0.672100
     18 O            8.6190     1.3770    21.3740 o          1 UGD      -0.560100
     19 C2           6.7690     0.1890    19.6650 ca         1 UGD      -0.315900
     20 N            4.9360     1.7050    19.5760 nb         1 UGD      -0.696500
     21 C3           5.7650     0.9360    20.2670 ca         1 UGD       0.454200
     22 H2           4.4350     2.3620    17.6930 h5         1 UGD       0.052100
     23 H3           7.5940    -0.2610    17.7310 h4         1 UGD       0.025100
     24 H4          11.9410    -2.0290    21.8770 ha         1 UGD       0.130000
     25 H5          14.0270    -1.4410    23.0230 ha         1 UGD       0.136000
     26 H6          12.8190     5.2580    24.3440 hc         1 UGD       0.093200
     27 H7          14.4470     5.4950    23.6540 hc         1 UGD       0.093200
     28 H8          14.3880     3.1890    22.7300 h2         1 UGD       0.058700
     29 H9          14.3800     0.8540    23.9010 ha         1 UGD       0.144000
     30 H10         10.5210     1.9900    22.4500 ha         1 UGD       0.183000
     31 H11          9.9320    -1.4590    21.1320 hn         1 UGD       0.316500
     32 H14          5.6200     0.9020    21.3420 h4         1 UGD       0.025100
     33 C1           7.7220    -0.6480    20.4530 c3         1 UGD      -0.105100
     34 H1          12.5900     3.7600    20.8400 hn         1 UGD       0.334500
     35 H12          7.1920    -1.1810    21.2490 hc         1 UGD       0.069700
     36 H13          8.1720    -1.4150    19.8190 hc         1 UGD       0.069700
@<TRIPOS>BOND
     1     1     3 ar  
     2     1     4 ar  
     3     2     9 1   
     4     2    12 1   
     5     2    34 1   
     6     3    20 ar  
     7     3    22 1   
     8     4    19 ar  
     9     4    23 1   
    10     5     6 ar  
    11     5    15 ar  
    12     5    16 1   
    13     6     7 ar  
    14     6    24 1   
    15     7    14 ar  
    16     7    25 1   
    17     8    13 1   
    18     8    14 ar  
    19     8    15 ar  
    20     9    10 2   
    21     9    11 1   
    22    11    12 1   
    23    11    26 1   
    24    11    27 1   
    25    12    13 1   
    26    12    28 1   
    27    14    29 1   
    28    15    30 1   
    29    16    17 1   
    30    16    31 1   
    31    17    18 2   
    32    17    33 1   
    33    19    21 ar  
    34    19    33 1   
    35    20    21 ar  
    36    21    32 1   
    37    33    35 1   
    38    33    36 1   
@<TRIPOS>SUBSTRUCTURE
     1 UGD         1 TEMP              0 ****  ****    0 ROOT
