@<TRIPOS>MOLECULE
UGE
   36    38     1     0     0
SMALL
No Charge or Current Charge


@<TRIPOS>ATOM
      1 C02        -19.0520    22.2880    -4.2670 c          1 UGE       0.577500
      2 C03        -18.6680    22.3850    -2.8130 ca         1 UGE      -0.152600
      3 C04        -17.5200    23.1000    -2.4100 ca         1 UGE      -0.084500
      4 C05        -17.1710    23.1820    -1.0510 ca         1 UGE      -0.028000
      5 C06        -17.9630    22.5410    -0.0750 ca         1 UGE      -0.270500
      6 C10        -17.0950    20.0410     2.4240 c6         1 UGE       0.194800
      7 C11        -17.4990    19.0410     1.3210 c6         1 UGE      -0.108400
      8 C12        -16.2840    18.6530     0.4520 c6         1 UGE      -0.029100
      9 C13        -15.3500    19.8310     0.1460 ca         1 UGE      -0.092300
     10 C14        -15.4590    21.0660     0.8410 ca         1 UGE       0.238000
     11 C15        -14.4970    22.0690     0.5820 ca         1 UGE      -0.084000
     12 C16        -13.4940    21.8790    -0.3840 ca         1 UGE      -0.103000
     13 C17        -13.4220    20.6730    -1.0920 ca         1 UGE      -0.105000
     14 C18        -14.3390    19.6480    -0.8190 ca         1 UGE      -0.109000
     15 C20        -19.1190    21.8380    -0.4730 ca         1 UGE      -0.028000
     16 C21        -19.4650    21.7590    -1.8330 ca         1 UGE      -0.084500
     17 N09        -16.4850    21.2480     1.8050 nh         1 UGE      -0.728300
     18 O08        -18.7140    22.3910     2.4790 o          1 UGE      -0.528500
     19 O19        -16.6790    23.8170     1.8960 o          1 UGE      -0.528500
     20 S07        -17.5100    22.6290     1.6730 sy         1 UGE       1.149600
     21 O1         -18.4090    22.8080    -5.1740 o          1 UGE      -0.502100
     22 H1         -19.9730    21.7050    -4.4870 h4         1 UGE      -0.004800
     23 H3         -16.8930    23.5960    -3.1490 ha         1 UGE       0.129000
     24 H4         -16.2840    23.7440    -0.7650 ha         1 UGE       0.141500
     25 H6         -16.3570    19.5620     3.0840 h1         1 UGE       0.076200
     26 H7         -18.2770    19.4830     0.6880 hc         1 UGE       0.054200
     27 H8         -17.9410    18.1420     1.7710 hc         1 UGE       0.054200
     28 H9         -16.6350    18.1950    -0.4840 hc         1 UGE       0.055700
     29 H10        -15.7060    17.8780     0.9730 hc         1 UGE       0.055700
     30 H11        -14.5060    22.9980     1.1400 ha         1 UGE       0.144000
     31 H12        -12.7680    22.6670    -0.5740 ha         1 UGE       0.122000
     32 H13        -12.6430    20.5230    -1.8370 ha         1 UGE       0.118000
     33 H14        -14.2600    18.7030    -1.3510 ha         1 UGE       0.113000
     34 H15        -19.7510    21.3500     0.2660 ha         1 UGE       0.141500
     35 H16        -20.3580    21.2070    -2.1230 ha         1 UGE       0.129000
     36 H5         -17.9650    20.2580     3.0590 h1         1 UGE       0.076200
@<TRIPOS>BOND
     1     1     2 1   
     2     1    21 2   
     3     1    22 1   
     4     2     3 ar  
     5     2    16 ar  
     6     3     4 ar  
     7     3    23 1   
     8     4     5 ar  
     9     4    24 1   
    10     5    15 ar  
    11     5    20 1   
    12     6     7 1   
    13     6    17 1   
    14     6    25 1   
    15     6    36 1   
    16     7     8 1   
    17     7    26 1   
    18     7    27 1   
    19     8     9 1   
    20     8    28 1   
    21     8    29 1   
    22     9    10 ar  
    23     9    14 ar  
    24    10    11 ar  
    25    10    17 1   
    26    11    12 ar  
    27    11    30 1   
    28    12    13 ar  
    29    12    31 1   
    30    13    14 ar  
    31    13    32 1   
    32    14    33 1   
    33    15    16 ar  
    34    15    34 1   
    35    16    35 1   
    36    17    20 1   
    37    18    20 2   
    38    19    20 2   
@<TRIPOS>SUBSTRUCTURE
     1 UGE         1 TEMP              0 ****  ****    0 ROOT
