@<TRIPOS>MOLECULE
UGE
   36    38     1     0     0
SMALL
abcg2


@<TRIPOS>ATOM
      1 C02        -19.8550    21.8800    -3.9770 c          1 UGE       0.577500
      2 C03        -19.2160    22.1110    -2.6650 ca         1 UGE      -0.152600
      3 C04        -17.8550    22.4000    -2.5700 ca         1 UGE      -0.084500
      4 C05        -17.2780    22.6100    -1.3320 ca         1 UGE      -0.028000
      5 C06        -18.0740    22.5180    -0.1920 ca         1 UGE      -0.270500
      6 C10        -17.2130    20.0730     1.8960 c6         1 UGE       0.194800
      7 C11        -17.4510    19.3060     0.6060 c6         1 UGE      -0.108400
      8 C12        -16.1300    18.9800    -0.0800 c6         1 UGE      -0.029100
      9 C13        -15.0650    20.0290     0.1000 ca         1 UGE      -0.092300
     10 C14        -15.2100    21.1120     0.9710 ca         1 UGE       0.238000
     11 C15        -14.1320    21.9630     1.2220 ca         1 UGE      -0.084000
     12 C16        -12.9360    21.7930     0.5490 ca         1 UGE      -0.103000
     13 C17        -12.7940    20.7490    -0.3580 ca         1 UGE      -0.105000
     14 C18        -13.8450    19.8730    -0.5580 ca         1 UGE      -0.109000
     15 C20        -19.4310    22.2450    -0.2690 ca         1 UGE      -0.028000
     16 C21        -19.9980    22.0420    -1.5180 ca         1 UGE      -0.084500
     17 N09        -16.4370    21.3010     1.6660 nh         1 UGE      -0.728300
     18 O08        -18.3410    22.7500     2.4080 o          1 UGE      -0.528500
     19 O19        -16.3550    23.7970     1.2870 o          1 UGE      -0.528500
     20 S07        -17.3020    22.7040     1.3970 sy         1 UGE       1.149600
     21 O1         -19.2730    21.9310    -5.0320 o          1 UGE      -0.502100
     22 H1         -20.9330    21.6480    -3.9280 h4         1 UGE      -0.004800
     23 H3         -17.2480    22.4650    -3.4630 ha         1 UGE       0.129000
     24 H4         -16.2250    22.8430    -1.2630 ha         1 UGE       0.141500
     25 H6         -16.6360    19.4700     2.6010 h1         1 UGE       0.076200
     26 H7         -18.0930    19.8840    -0.0580 hc         1 UGE       0.054200
     27 H8         -17.9910    18.3860     0.8320 hc         1 UGE       0.054200
     28 H9         -16.2920    18.8010    -1.1450 hc         1 UGE       0.055700
     29 H10        -15.7330    18.0430     0.3220 hc         1 UGE       0.055700
     30 H11        -14.2280    22.7510     1.9540 ha         1 UGE       0.144000
     31 H12        -12.1110    22.4650     0.7460 ha         1 UGE       0.122000
     32 H13        -11.8610    20.6070    -0.8870 ha         1 UGE       0.118000
     33 H14        -13.7250    19.0370    -1.2380 ha         1 UGE       0.113000
     34 H15        -20.0400    22.1810     0.6210 ha         1 UGE       0.141500
     35 H16        -21.0570    21.8250    -1.5980 ha         1 UGE       0.129000
     36 H5         -18.1480    20.3240     2.3900 h1         1 UGE       0.076200
@<TRIPOS>BOND
     1     1     2 1   
     2     1    21 2   
     3     1    22 1   
     4     2     3 ar  
     5     2    16 ar  
     6     3     4 ar  
     7     3    23 1   
     8     4     5 ar  
     9     4    24 1   
    10     5    15 ar  
    11     5    20 1   
    12     6     7 1   
    13     6    17 1   
    14     6    25 1   
    15     6    36 1   
    16     7     8 1   
    17     7    26 1   
    18     7    27 1   
    19     8     9 1   
    20     8    28 1   
    21     8    29 1   
    22     9    10 ar  
    23     9    14 ar  
    24    10    11 ar  
    25    10    17 1   
    26    11    12 ar  
    27    11    30 1   
    28    12    13 ar  
    29    12    31 1   
    30    13    14 ar  
    31    13    32 1   
    32    14    33 1   
    33    15    16 ar  
    34    15    34 1   
    35    16    35 1   
    36    17    20 1   
    37    18    20 2   
    38    19    20 2   
@<TRIPOS>SUBSTRUCTURE
     1 UGE         1 TEMP              0 ****  ****    0 ROOT
