@<TRIPOS>MOLECULE
UGF
   55    57     1     0     0
SMALL
abcg2


@<TRIPOS>ATOM
      1 O2          -5.1970    16.3920    -9.2200 o          1 UGF      -0.598000
      2 C2          -4.1340    15.9140    -8.8830 c          1 UGF       0.622000
      3 N3          -2.9660    16.2140    -9.5380 ns         1 UGF      -0.478500
      4 C4          -1.6880    15.7400    -9.2780 c          1 UGF       0.593200
      5 O4          -0.7470    16.0960    -9.9610 o          1 UGF      -0.597000
      6 C5          -1.6360    14.8270    -8.1640 cc         1 UGF      -0.416200
      7 C6          -2.7630    14.5230    -7.5000 cd         1 UGF       0.052600
      8 N1          -3.9890    15.0330    -7.8290 n          1 UGF      -0.298000
      9 C1D         -5.1630    14.6410    -7.0610 c5         1 UGF       0.330700
     10 O4D         -4.9450    14.9050    -5.7050 os         1 UGF      -0.470000
     11 C2D         -5.4990    13.1540    -7.1620 c5         1 UGF       0.143300
     12 O2D         -6.2100    12.9260    -8.3410 oh         1 UGF      -0.722000
     13 C3D         -6.2590    12.9370    -5.8550 c5         1 UGF       0.097300
     14 O3D         -7.5850    13.3630    -6.0580 oh         1 UGF      -0.724000
     15 C4D         -5.5010    13.8650    -4.8930 c5         1 UGF       0.129300
     16 C5D         -4.4180    13.2020    -4.0650 c3         1 UGF       0.233600
     17 O5D         -3.4430    12.6630    -4.9230 os         1 UGF      -0.627400
     18 PA          -2.1650    11.7790    -4.3750 p5         1 UGF       1.475800
     19 O1A         -1.1230    11.8840    -5.4410 o          1 UGF      -0.849000
     20 O2A         -1.8830    12.1230    -2.9490 o          1 UGF      -0.849000
     21 O3A         -2.8100    10.2640    -4.3540 os         1 UGF      -0.717800
     22 PB          -3.8390     9.5620    -5.4290 p5         1 UGF       1.482800
     23 O1B         -5.2170     9.5860    -4.8430 o          1 UGF      -0.858000
     24 O2B         -3.5640    10.0320    -6.8210 o          1 UGF      -0.858000
     25 O3B         -3.2220     8.0330    -5.3260 os         1 UGF      -0.598400
     26 C1          -3.8570     7.0090    -4.6260 c6         1 UGF       0.430300
     27 O5          -4.7360     6.2880    -5.4400 os         1 UGF      -0.446000
     28 C9          -4.1250     5.6180    -6.5350 c6         1 UGF       0.008300
     29 C10         -5.2630     4.9300    -7.3340 c          1 UGF       0.743000
     30 O'P         -5.8380     3.9900    -6.7540 o          1 UGF      -0.736000
     31 O'Q         -5.4980     5.3910    -8.4640 o          1 UGF      -0.736000
     32 C8          -3.1130     4.6180    -6.0010 c6         1 UGF       0.179300
     33 F4          -2.4990     3.9900    -7.0850 f          1 UGF      -0.285000
     34 C3          -2.0680     5.3040    -5.1510 c6         1 UGF       0.136300
     35 O3          -1.2030     4.3300    -4.6210 oh         1 UGF      -0.688000
     36 C7          -2.7930     6.0700    -4.0460 c6         1 UGF       0.105300
     37 O6          -1.8250     6.7550    -3.2950 oh         1 UGF      -0.716000
     38 H1          -3.0640    16.8580   -10.3130 hn         1 UGF       0.308500
     39 H2          -0.6930    14.3960    -7.8660 ha         1 UGF       0.242000
     40 H3          -2.7440    13.8480    -6.6560 h4         1 UGF       0.290000
     41 H4          -5.9950    15.2330    -7.4500 h2         1 UGF       0.089700
     42 H5          -4.5850    12.5510    -7.1270 h1         1 UGF       0.135700
     43 H6          -6.2200    11.9800    -8.5150 ho         1 UGF       0.533000
     44 H7          -6.2160    11.8930    -5.5200 h1         1 UGF       0.132700
     45 H8          -8.0660    13.2560    -5.2310 ho         1 UGF       0.483000
     46 H9          -6.2070    14.3140    -4.1850 h1         1 UGF       0.025700
     47 H10         -3.9790    13.9410    -3.3880 h1         1 UGF       0.028700
     48 H11         -4.8930    12.4350    -3.4420 h1         1 UGF       0.028700
     49 H14         -4.4760     7.4080    -3.8160 h2         1 UGF       0.058700
     50 H15         -3.6110     6.3360    -7.1860 h1         1 UGF       0.071700
     51 H17         -3.6250     3.8450    -5.4180 h1         1 UGF       0.061700
     52 H18         -1.5160     6.0200    -5.7790 h1         1 UGF       0.081700
     53 H19         -0.5570     4.7790    -4.0660 ho         1 UGF       0.433000
     54 H20         -3.3250     5.3350    -3.4250 h1         1 UGF       0.010700
     55 H21         -2.2000     6.9880    -2.4400 ho         1 UGF       0.490000
@<TRIPOS>BOND
     1     1     2 2   
     2     2     3 1   
     3     2     8 1   
     4     3     4 1   
     5     3    38 1   
     6     4     5 2   
     7     4     6 1   
     8     6     7 2   
     9     6    39 1   
    10     7     8 1   
    11     7    40 1   
    12     8     9 1   
    13     9    10 1   
    14     9    11 1   
    15     9    41 1   
    16    10    15 1   
    17    11    12 1   
    18    11    13 1   
    19    11    42 1   
    20    12    43 1   
    21    13    14 1   
    22    13    15 1   
    23    13    44 1   
    24    14    45 1   
    25    15    16 1   
    26    15    46 1   
    27    16    17 1   
    28    16    47 1   
    29    16    48 1   
    30    17    18 1   
    31    18    19 1   
    32    18    20 1   
    33    18    21 1   
    34    21    22 1   
    35    22    23 1   
    36    22    24 1   
    37    22    25 1   
    38    25    26 1   
    39    26    27 1   
    40    26    36 1   
    41    26    49 1   
    42    27    28 1   
    43    28    29 1   
    44    28    32 1   
    45    28    50 1   
    46    29    30 1   
    47    29    31 1   
    48    32    33 1   
    49    32    34 1   
    50    32    51 1   
    51    34    35 1   
    52    34    36 1   
    53    34    52 1   
    54    35    53 1   
    55    36    37 1   
    56    36    54 1   
    57    37    55 1   
@<TRIPOS>SUBSTRUCTURE
     1 UGF         1 TEMP              0 ****  ****    0 ROOT
