@<TRIPOS>MOLECULE
UGF
   55    57     1     0     0
SMALL
No Charge or Current Charge


@<TRIPOS>ATOM
      1 O2          -5.2740    16.9120    -8.2870 o          1 UGF      -0.598000
      2 C2          -4.2030    16.3280    -8.3350 c          1 UGF       0.622000
      3 N3          -3.2790    16.6650    -9.2760 ns         1 UGF      -0.478500
      4 C4          -2.0450    16.1370    -9.4630 c          1 UGF       0.593200
      5 O4          -1.3000    16.5220   -10.3460 o          1 UGF      -0.597000
      6 C5          -1.7100    15.0850    -8.5130 cc         1 UGF      -0.416200
      7 C6          -2.5880    14.6820    -7.5310 cd         1 UGF       0.052600
      8 N1          -3.8390    15.2960    -7.4490 n          1 UGF      -0.298000
      9 C1D         -4.8210    14.8760    -6.4170 c5         1 UGF       0.330700
     10 O4D         -4.1670    14.5630    -5.1690 os         1 UGF      -0.470000
     11 C2D         -5.4790    13.5350    -6.8840 c5         1 UGF       0.143300
     12 O2D         -6.5540    13.6910    -7.8270 oh         1 UGF      -0.722000
     13 C3D         -6.0560    13.0820    -5.5150 c5         1 UGF       0.097300
     14 O3D         -7.2680    13.8220    -5.2260 oh         1 UGF      -0.724000
     15 C4D         -4.8690    13.4470    -4.5490 c5         1 UGF       0.129300
     16 C5D         -3.8720    12.2800    -4.2690 c3         1 UGF       0.233600
     17 O5D         -3.1880    11.9180    -5.4780 os         1 UGF      -0.627400
     18 PA          -2.0340    10.7990    -5.4200 p5         1 UGF       1.475800
     19 O1A         -1.1150    10.8710    -6.5920 o          1 UGF      -0.849000
     20 O2A         -1.2550    10.9290    -4.1550 o          1 UGF      -0.849000
     21 O3A         -2.8770     9.4660    -5.3780 os         1 UGF      -0.717800
     22 PB          -3.9950     9.2930    -6.4790 p5         1 UGF       1.482800
     23 O1B         -5.3370     9.7010    -5.9810 o          1 UGF      -0.858000
     24 O2B         -3.6800     9.8790    -7.8120 o          1 UGF      -0.858000
     25 O3B         -3.9050     7.6940    -6.5830 os         1 UGF      -0.598400
     26 C1          -4.6170     6.8690    -5.6510 c6         1 UGF       0.430300
     27 O5          -4.7780     5.5660    -6.2550 os         1 UGF      -0.446000
     28 C9          -3.5340     4.8240    -6.4950 c6         1 UGF       0.008300
     29 C10         -3.7440     3.4470    -7.2050 c          1 UGF       0.743000
     30 O'P         -4.8580     2.9430    -7.1140 o          1 UGF      -0.736000
     31 O'Q         -3.0950     3.2750    -8.2300 o          1 UGF      -0.736000
     32 C8          -2.7810     4.6050    -5.1600 c6         1 UGF       0.179300
     33 F4          -1.5160     4.0430    -5.4470 f          1 UGF      -0.285000
     34 C3          -2.5710     5.9510    -4.4030 c6         1 UGF       0.136300
     35 O3          -1.9830     5.7480    -3.1010 oh         1 UGF      -0.688000
     36 C7          -3.9280     6.6940    -4.2350 c6         1 UGF       0.105300
     37 O6          -3.7260     7.9200    -3.4940 oh         1 UGF      -0.716000
     38 H1          -3.5460    17.4010    -9.9100 hn         1 UGF       0.308500
     39 H2          -0.7270    14.6420    -8.6280 ha         1 UGF       0.242000
     40 H3          -2.3940    13.9070    -6.7890 h4         1 UGF       0.290000
     41 H4          -5.5670    15.6670    -6.2680 h2         1 UGF       0.089700
     42 H5          -4.7200    12.8280    -7.2500 h1         1 UGF       0.135700
     43 H6          -7.3300    13.8780    -7.2390 ho         1 UGF       0.533000
     44 H7          -6.2480    11.9980    -5.5100 h1         1 UGF       0.132700
     45 H8          -7.5790    13.5460    -4.3310 ho         1 UGF       0.483000
     46 H9          -5.2570    13.7840    -3.5780 h1         1 UGF       0.025700
     47 H10         -3.1590    12.6170    -3.5050 h1         1 UGF       0.028700
     48 H11         -4.4250    11.4240    -3.8610 h1         1 UGF       0.028700
     49 H14         -5.6230     7.2880    -5.4940 h2         1 UGF       0.058700
     50 H15         -2.8970     5.4220    -7.1620 h1         1 UGF       0.071700
     51 H17         -3.3310     3.8920    -4.5290 h1         1 UGF       0.061700
     52 H18         -1.9120     6.5840    -5.0190 h1         1 UGF       0.081700
     53 H19         -2.2930     6.5190    -2.5720 ho         1 UGF       0.433000
     54 H20         -4.5880     6.0430    -3.6430 h1         1 UGF       0.010700
     55 H21         -3.3170     8.5660    -4.1380 ho         1 UGF       0.490000
@<TRIPOS>BOND
     1     1     2 2   
     2     2     3 1   
     3     2     8 1   
     4     3     4 1   
     5     3    38 1   
     6     4     5 2   
     7     4     6 1   
     8     6     7 2   
     9     6    39 1   
    10     7     8 1   
    11     7    40 1   
    12     8     9 1   
    13     9    10 1   
    14     9    11 1   
    15     9    41 1   
    16    10    15 1   
    17    11    12 1   
    18    11    13 1   
    19    11    42 1   
    20    12    43 1   
    21    13    14 1   
    22    13    15 1   
    23    13    44 1   
    24    14    45 1   
    25    15    16 1   
    26    15    46 1   
    27    16    17 1   
    28    16    47 1   
    29    16    48 1   
    30    17    18 1   
    31    18    19 1   
    32    18    20 1   
    33    18    21 1   
    34    21    22 1   
    35    22    23 1   
    36    22    24 1   
    37    22    25 1   
    38    25    26 1   
    39    26    27 1   
    40    26    36 1   
    41    26    49 1   
    42    27    28 1   
    43    28    29 1   
    44    28    32 1   
    45    28    50 1   
    46    29    30 1   
    47    29    31 1   
    48    32    33 1   
    49    32    34 1   
    50    32    51 1   
    51    34    35 1   
    52    34    36 1   
    53    34    52 1   
    54    35    53 1   
    55    36    37 1   
    56    36    54 1   
    57    37    55 1   
@<TRIPOS>SUBSTRUCTURE
     1 UGF         1 TEMP              0 ****  ****    0 ROOT
