@<TRIPOS>MOLECULE
UGG
   34    36     1     0     0
SMALL
No Charge or Current Charge


@<TRIPOS>ATOM
      1 N1           9.1600    -0.4620    22.0080 ns         1 UGG      -0.151000
      2 C4           5.4530     1.4540    17.7780 ca         1 UGG       0.369900
      3 C5           5.2420     1.4250    19.1690 ca         1 UGG      -0.099000
      4 C6           4.2770     2.2650    19.7580 ca         1 UGG      -0.078000
      5 C7           4.0740     2.2350    21.1470 ca         1 UGG      -0.113000
      6 C8           4.8330     1.3670    21.9470 ca         1 UGG      -0.086000
      7 C10          6.0110     0.5470    19.9660 ca         1 UGG       0.005000
      8 C13         12.1000     1.4150    23.4450 ca         1 UGG      -0.083000
      9 C15         10.7300     0.5130    25.2370 ca         1 UGG      -0.083000
     10 O            9.9900    -0.1100    19.8760 o          1 UGG      -0.563100
     11 C            9.1210    -0.5470    20.6210 c          1 UGG       0.605100
     12 C11         10.0920     0.1240    22.9080 ca         1 UGG      -0.021000
     13 C16          9.8550    -0.0400    24.2870 ca         1 UGG      -0.150000
     14 C14         11.8530     1.2410    24.8160 ca         1 UGG      -0.136000
     15 C12         11.2240     0.8610    22.4940 ca         1 UGG      -0.150000
     16 C1           7.8800    -1.2590    20.0620 c3         1 UGG      -0.110100
     17 C2           6.9690    -0.2730    19.3170 ca         1 UGG      -0.108300
     18 C9           5.7970     0.5260    21.3640 ca         1 UGG      -0.109000
     19 N            6.3670     0.6790    17.1530 nb         1 UGG      -0.662000
     20 C3           7.1030    -0.1590    17.9150 ca         1 UGG       0.343900
     21 H1           8.3720    -0.8980    22.4690 hn         1 UGG       0.147000
     22 H2           4.8740     2.1210    17.1400 h4         1 UGG       0.020100
     23 H3           3.6860     2.9400    19.1430 ha         1 UGG       0.118000
     24 H4           3.3280     2.8830    21.6020 ha         1 UGG       0.117000
     25 H5           4.6740     1.3440    23.0230 ha         1 UGG       0.115000
     26 H6          12.9690     1.9810    23.1180 ha         1 UGG       0.113500
     27 H7          10.5360     0.3790    26.3000 ha         1 UGG       0.113500
     28 H8           8.9870    -0.6010    24.6270 ha         1 UGG       0.127000
     29 H9          12.5310     1.6700    25.5500 ha         1 UGG       0.115000
     30 H10         11.4440     1.0210    21.4430 ha         1 UGG       0.127000
     31 H11          7.3300    -1.7650    20.8630 hc         1 UGG       0.066700
     32 H12          8.2280    -2.0280    19.3620 hc         1 UGG       0.066700
     33 H13          6.3620    -0.1320    22.0150 ha         1 UGG       0.113000
     34 H14          7.8330    -0.7640    17.3790 h4         1 UGG       0.018100
@<TRIPOS>BOND
     1     1    11 1   
     2     1    12 1   
     3     1    21 1   
     4     2     3 ar  
     5     2    19 ar  
     6     2    22 1   
     7     3     4 ar  
     8     3     7 ar  
     9     4     5 ar  
    10     4    23 1   
    11     5     6 ar  
    12     5    24 1   
    13     6    18 ar  
    14     6    25 1   
    15     7    17 ar  
    16     7    18 ar  
    17     8    14 ar  
    18     8    15 ar  
    19     8    26 1   
    20     9    13 ar  
    21     9    14 ar  
    22     9    27 1   
    23    10    11 2   
    24    11    16 1   
    25    12    13 ar  
    26    12    15 ar  
    27    13    28 1   
    28    14    29 1   
    29    15    30 1   
    30    16    17 1   
    31    16    31 1   
    32    16    32 1   
    33    17    20 ar  
    34    18    33 1   
    35    19    20 ar  
    36    20    34 1   
@<TRIPOS>SUBSTRUCTURE
     1 UGG         1 TEMP              0 ****  ****    0 ROOT
