@<TRIPOS>MOLECULE
UGG
   34    36     1     0     0
SMALL
bcc


@<TRIPOS>ATOM
      1 N1           9.2450    -0.4980    22.1530 ns         1 UGG      -0.477100
      2 C4           5.2880     1.0740    17.5930 ca         1 UGG       0.435200
      3 C5           5.1150     1.3300    18.9740 ca         1 UGG      -0.164300
      4 C6           4.1330     2.2280    19.4450 ca         1 UGG      -0.096000
      5 C7           3.9960     2.4530    20.7870 ca         1 UGG      -0.131000
      6 C8           4.8360     1.7850    21.7020 ca         1 UGG      -0.104000
      7 C10          5.9610     0.6580    19.8870 ca         1 UGG       0.005000
      8 C13         11.9670     1.5480    23.6480 ca         1 UGG      -0.101000
      9 C15         11.1890    -0.0710    25.2270 ca         1 UGG      -0.101000
     10 O            9.3610     0.8660    20.3330 o          1 UGG      -0.563100
     11 C            8.8940    -0.0990    20.9060 c          1 UGG       0.672100
     12 C11         10.1960     0.0430    23.0270 ca         1 UGG       0.071600
     13 C16         10.2740    -0.5330    24.2970 ca         1 UGG      -0.168000
     14 C14         12.0440     0.9770    24.9100 ca         1 UGG      -0.154000
     15 C12         11.0540     1.0950    22.7040 ca         1 UGG      -0.168000
     16 C1           7.8620    -0.9980    20.2420 c3         1 UGG      -0.110100
     17 C2           6.9310    -0.2320    19.3540 ca         1 UGG      -0.173600
     18 C9           5.7950     0.9090    21.2680 ca         1 UGG      -0.127000
     19 N            6.1830     0.2550    17.1170 nb         1 UGG      -0.662000
     20 C3           6.9880    -0.3830    17.9950 ca         1 UGG       0.409200
     21 H1           8.7540    -1.3020    22.5140 hn         1 UGG       0.313500
     22 H2           4.6430     1.5810    16.8800 h4         1 UGG       0.020100
     23 H3           3.4940     2.7340    18.7320 ha         1 UGG       0.136000
     24 H4           3.2450     3.1400    21.1530 ha         1 UGG       0.135000
     25 H5           4.7190     1.9700    22.7620 ha         1 UGG       0.133000
     26 H6          12.6270     2.3640    23.3840 ha         1 UGG       0.131500
     27 H7          11.2300    -0.5330    26.2050 ha         1 UGG       0.131500
     28 H8           9.6120    -1.3520    24.5570 ha         1 UGG       0.145000
     29 H9          12.7590     1.3410    25.6350 ha         1 UGG       0.133000
     30 H10         11.0210     1.5600    21.7330 ha         1 UGG       0.145000
     31 H11          7.3070    -1.5830    20.9810 hc         1 UGG       0.066700
     32 H12          8.4180    -1.7260    19.6440 hc         1 UGG       0.066700
     33 H13          6.4230     0.4090    21.9940 ha         1 UGG       0.131000
     34 H14          7.7170    -1.0580    17.5590 h4         1 UGG       0.018100
@<TRIPOS>BOND
     1     1    11 1   
     2     1    12 1   
     3     1    21 1   
     4     2     3 ar  
     5     2    19 ar  
     6     2    22 1   
     7     3     4 ar  
     8     3     7 ar  
     9     4     5 ar  
    10     4    23 1   
    11     5     6 ar  
    12     5    24 1   
    13     6    18 ar  
    14     6    25 1   
    15     7    17 ar  
    16     7    18 ar  
    17     8    14 ar  
    18     8    15 ar  
    19     8    26 1   
    20     9    13 ar  
    21     9    14 ar  
    22     9    27 1   
    23    10    11 2   
    24    11    16 1   
    25    12    13 ar  
    26    12    15 ar  
    27    13    28 1   
    28    14    29 1   
    29    15    30 1   
    30    16    17 1   
    31    16    31 1   
    32    16    32 1   
    33    17    20 ar  
    34    18    33 1   
    35    19    20 ar  
    36    20    34 1   
@<TRIPOS>SUBSTRUCTURE
     1 UGG         1 TEMP              0 ****  ****    0 ROOT
