@<TRIPOS>MOLECULE
UGH
   22    21     1     0     0
SMALL
No Charge or Current Charge


@<TRIPOS>ATOM
      1 N1         -18.8550   -22.0260    -7.7720 n7         1 UGH      -0.866400
      2 C4         -20.8620   -23.3140    -7.0380 c3         1 UGH       0.081600
      3 C3         -19.3990   -23.3810    -7.5270 c3         1 UGH       0.165800
      4 C2         -17.4770   -21.9900    -8.2980 c3         1 UGH       0.158800
      5 C1         -17.0180   -20.5380    -8.5500 c3         1 UGH      -0.077400
      6 SG         -21.6210   -24.9780    -6.7110 sh         1 UGH      -0.459800
      7 C          -17.8100   -19.8250    -9.6670 c3         1 UGH       0.149800
      8 N          -17.2950   -18.4620    -9.9140 n8         1 UGH      -0.998200
      9 H1         -18.8710   -21.5070    -6.8850 hn         1 UGH       0.404000
     10 H3         -20.9080   -22.7280    -6.1110 h1         1 UGH       0.063700
     11 H4         -21.4710   -22.8010    -7.7940 h1         1 UGH       0.063700
     12 H5         -19.3670   -23.9770    -8.4500 h1         1 UGH       0.044700
     13 H6         -18.7970   -23.9060    -6.7730 h1         1 UGH       0.044700
     14 H7         -17.4090   -22.5540    -9.2390 h1         1 UGH       0.033200
     15 H8         -16.7880   -22.4570    -7.5820 h1         1 UGH       0.033200
     16 H9         -15.9560   -20.5590    -8.8250 hc         1 UGH       0.045700
     17 H10        -17.0930   -19.9660    -7.6170 hc         1 UGH       0.045700
     18 H11        -22.8370   -24.5120    -6.3270 hs         1 UGH       0.215800
     19 H12        -18.8710   -19.7560    -9.3880 h1         1 UGH       0.036700
     20 H13        -17.7350   -20.4050   -10.5980 h1         1 UGH       0.036700
     21 H14        -17.8860   -18.0050   -10.6190 hn         1 UGH       0.389500
     22 H15        -17.4420   -17.8930    -9.0720 hn         1 UGH       0.389500
@<TRIPOS>BOND
     1     1     3 1   
     2     1     4 1   
     3     1     9 1   
     4     2     3 1   
     5     2     6 1   
     6     2    10 1   
     7     2    11 1   
     8     3    12 1   
     9     3    13 1   
    10     4     5 1   
    11     4    14 1   
    12     4    15 1   
    13     5     7 1   
    14     5    16 1   
    15     5    17 1   
    16     6    18 1   
    17     7     8 1   
    18     7    19 1   
    19     7    20 1   
    20     8    21 1   
    21     8    22 1   
@<TRIPOS>SUBSTRUCTURE
     1 UGH         1 TEMP              0 ****  ****    0 ROOT
