@<TRIPOS>MOLECULE
UGH
   22    21     1     0     0
SMALL
bcc


@<TRIPOS>ATOM
      1 N1         -18.9210   -21.9890    -7.8060 n7         1 UGH      -0.811200
      2 C4         -20.8540   -23.2620    -7.0570 c3         1 UGH       0.033700
      3 C3         -19.3990   -23.3200    -7.4950 c3         1 UGH       0.165800
      4 C2         -17.5590   -21.9860    -8.3110 c3         1 UGH       0.158800
      5 C1         -17.0500   -20.5760    -8.5670 c3         1 UGH      -0.077400
      6 SG         -21.4120   -24.9470    -6.6400 sh         1 UGH      -0.411900
      7 C          -17.8350   -19.8190    -9.6280 c3         1 UGH       0.149800
      8 N          -17.2500   -18.5040    -9.8580 n8         1 UGH      -0.887800
      9 H1         -18.9550   -21.4240    -6.9650 hn         1 UGH       0.348800
     10 H3         -20.9620   -22.6190    -6.1820 h1         1 UGH       0.063700
     11 H4         -21.4700   -22.8580    -7.8600 h1         1 UGH       0.063700
     12 H5         -19.3190   -23.9350    -8.3960 h1         1 UGH       0.044700
     13 H6         -18.7980   -23.8210    -6.7210 h1         1 UGH       0.044700
     14 H7         -17.5410   -22.5560    -9.2450 h1         1 UGH       0.033200
     15 H8         -16.8620   -22.4980    -7.6280 h1         1 UGH       0.033200
     16 H9         -16.0030   -20.6340    -8.8720 hc         1 UGH       0.045700
     17 H10        -17.0630   -20.0110    -7.6270 hc         1 UGH       0.045700
     18 H11        -22.6900   -24.6510    -6.3820 hs         1 UGH       0.215800
     19 H12        -18.8930   -19.7840    -9.3420 h1         1 UGH       0.036700
     20 H13        -17.7900   -20.3810   -10.5660 h1         1 UGH       0.036700
     21 H14        -17.7740   -18.0270   -10.5810 hn         1 UGH       0.334300
     22 H15        -17.3680   -17.9390    -9.0250 hn         1 UGH       0.334300
@<TRIPOS>BOND
     1     1     3 1   
     2     1     4 1   
     3     1     9 1   
     4     2     3 1   
     5     2     6 1   
     6     2    10 1   
     7     2    11 1   
     8     3    12 1   
     9     3    13 1   
    10     4     5 1   
    11     4    14 1   
    12     4    15 1   
    13     5     7 1   
    14     5    16 1   
    15     5    17 1   
    16     6    18 1   
    17     7     8 1   
    18     7    19 1   
    19     7    20 1   
    20     8    21 1   
    21     8    22 1   
@<TRIPOS>SUBSTRUCTURE
     1 UGH         1 TEMP              0 ****  ****    0 ROOT
