@<TRIPOS>MOLECULE
UGI
   49    52     1     0     0
SMALL
abcg2


@<TRIPOS>ATOM
      1 C4           0.4610    -0.4720     0.4230 cp         1 UGI       0.242500
      2 C5          -0.6760    -1.2460     0.2790 ca         1 UGI      -0.338000
      3 C6          -1.9070    -0.5610     0.2920 ca         1 UGI       0.427900
      4 N1          -1.9400     0.7600     0.4200 nb         1 UGI      -0.329000
      5 N3           0.4340     0.8490     0.5530 nb         1 UGI      -0.274000
      6 FAZ          3.8740     0.2750    -2.1510 f          1 UGI      -0.108333
      7 FBA          3.0170     1.5950    -0.6990 f          1 UGI      -0.108333
      8 FBB          1.7440     0.3910    -1.9640 f          1 UGI      -0.108333
      9 CAS          2.9200    -0.7180    -0.2430 ca         1 UGI      -0.077300
     10 CAR          4.1140    -1.3760    -0.0550 ca         1 UGI      -0.201000
     11 CAQ          4.1720    -2.4390     0.8610 ca         1 UGI       0.610900
     12 NAX          5.3410    -3.0840     1.1090 nv         1 UGI      -1.064900
     13 NAP          3.1040    -2.8390     1.5380 nb         1 UGI      -0.732000
     14 CAO          1.9670    -2.1930     1.3450 ca         1 UGI       0.399900
     15 CAH          1.7870    -1.1200     0.4820 cp         1 UGI      -0.212500
     16 C2          -0.7790     1.4070     0.5220 ca         1 UGI       0.437900
     17 NAI         -0.8330     2.7480     0.6180 nh         1 UGI      -0.783300
     18 CAT         -2.0640     3.5090     0.5240 c5         1 UGI       0.238300
     19 CAU         -1.5700     4.9370     0.3110 c5         1 UGI      -0.097900
     20 CAV         -0.2360     4.9590     1.0510 c5         1 UGI      -0.097900
     21 CAW          0.3490     3.5800     0.7650 c5         1 UGI       0.238300
     22 NAG         -3.1050    -1.1970     0.1560 nh         1 UGI      -0.775300
     23 CAJ         -3.2190    -2.6380     0.2450 c6         1 UGI       0.181300
     24 CAK         -4.4310    -3.1190    -0.5350 c6         1 UGI       0.142100
     25 OAL         -5.6070    -2.4650    -0.1420 os         1 UGI      -0.442000
     26 CAM         -5.4870    -1.0780    -0.3360 c6         1 UGI       0.142100
     27 CAN         -4.3390    -0.4930     0.4620 c6         1 UGI       0.181300
     28 H1          -0.5890    -2.3120     0.1550 ha         1 UGI       0.130000
     29 H2           5.0010    -1.1000    -0.6070 ha         1 UGI       0.138000
     30 H3           6.0990    -2.9960     0.4580 hn         1 UGI       0.483000
     31 H4           5.2810    -3.9610     1.5970 hn         1 UGI       0.483000
     32 H5           1.1250    -2.5380     1.9360 h4         1 UGI       0.026100
     33 H6          -2.6890     3.1500    -0.2940 h1         1 UGI       0.055700
     34 H7          -2.6550     3.4220     1.4420 h1         1 UGI       0.055700
     35 H8          -1.4130     5.1230    -0.7540 hc         1 UGI       0.052700
     36 H9          -2.2800     5.6790     0.6750 hc         1 UGI       0.052700
     37 H10          0.4240     5.7630     0.7260 hc         1 UGI       0.052700
     38 H11         -0.4020     5.0840     2.1240 hc         1 UGI       0.052700
     39 H12          0.9910     3.2160     1.5680 h1         1 UGI       0.055700
     40 H13          0.9480     3.5750    -0.1500 h1         1 UGI       0.055700
     41 H14         -2.3420    -3.1190    -0.1830 h1         1 UGI       0.058700
     42 H15         -3.2930    -2.9580     1.2930 h1         1 UGI       0.058700
     43 H16         -4.2470    -2.9740    -1.6100 h1         1 UGI       0.053700
     44 H17         -4.5750    -4.1870    -0.3620 h1         1 UGI       0.053700
     45 H18         -5.3470    -0.8470    -1.4030 h1         1 UGI       0.053700
     46 H19         -6.4260    -0.6230    -0.0170 h1         1 UGI       0.053700
     47 H20         -4.5570    -0.5620     1.5360 h1         1 UGI       0.058700
     48 H21         -4.2200     0.5600     0.2210 h1         1 UGI       0.058700
     49 CAY          2.8780     0.3940    -1.2610 c3         1 UGI       0.362300
@<TRIPOS>BOND
     1     1     2 ar  
     2     1     5 ar  
     3     1    15 1   
     4     2     3 ar  
     5     2    28 1   
     6     3     4 ar  
     7     3    22 1   
     8     4    16 ar  
     9     5    16 ar  
    10     6    49 1   
    11     7    49 1   
    12     8    49 1   
    13     9    10 ar  
    14     9    15 ar  
    15     9    49 1   
    16    10    11 ar  
    17    10    29 1   
    18    11    12 1   
    19    11    13 ar  
    20    12    30 1   
    21    12    31 1   
    22    13    14 ar  
    23    14    15 ar  
    24    14    32 1   
    25    16    17 1   
    26    17    18 1   
    27    17    21 1   
    28    18    19 1   
    29    18    33 1   
    30    18    34 1   
    31    19    20 1   
    32    19    35 1   
    33    19    36 1   
    34    20    21 1   
    35    20    37 1   
    36    20    38 1   
    37    21    39 1   
    38    21    40 1   
    39    22    23 1   
    40    22    27 1   
    41    23    24 1   
    42    23    41 1   
    43    23    42 1   
    44    24    25 1   
    45    24    43 1   
    46    24    44 1   
    47    25    26 1   
    48    26    27 1   
    49    26    45 1   
    50    26    46 1   
    51    27    47 1   
    52    27    48 1   
@<TRIPOS>SUBSTRUCTURE
     1 UGI         1 TEMP              0 ****  ****    0 ROOT
