@<TRIPOS>MOLECULE
UGI
   49    52     1     0     0
SMALL
No Charge or Current Charge


@<TRIPOS>ATOM
      1 C4           0.5220    -0.4680     0.4270 cp         1 UGI       0.242500
      2 C5          -0.6580    -1.2260     0.2950 ca         1 UGI      -0.338000
      3 C6          -1.8850    -0.5470     0.2380 ca         1 UGI       0.427900
      4 N1          -1.9310     0.7920     0.3190 nb         1 UGI      -0.329000
      5 N3           0.4540     0.8680     0.5210 nb         1 UGI      -0.274000
      6 FAZ          4.0450     0.3150    -2.1500 f          1 UGI      -0.108333
      7 FBA          3.0500     1.6320    -0.7450 f          1 UGI      -0.108333
      8 FBB          1.8860     0.3540    -2.0740 f          1 UGI      -0.108333
      9 CAS          3.0120    -0.7130    -0.2280 ca         1 UGI      -0.077300
     10 CAR          4.2120    -1.4140     0.0290 ca         1 UGI      -0.201000
     11 CAQ          4.2160    -2.4460     0.9680 ca         1 UGI       0.610900
     12 NAX          5.2960    -3.1720     1.2670 nv         1 UGI      -1.064900
     13 NAP          3.1680    -2.8490     1.6630 nb         1 UGI      -0.732000
     14 CAO          2.0120    -2.1890     1.4440 ca         1 UGI       0.399900
     15 CAH          1.8640    -1.1130     0.5310 cp         1 UGI      -0.212500
     16 C2          -0.7610     1.4390     0.4560 ca         1 UGI       0.437900
     17 NAI         -0.8120     2.8470     0.5390 nh         1 UGI      -0.783300
     18 CAT         -2.0680     3.6400     0.4340 c5         1 UGI       0.238300
     19 CAU         -1.5160     5.0670     0.1850 c5         1 UGI      -0.097900
     20 CAV         -0.2570     5.0690     1.0890 c5         1 UGI      -0.097900
     21 CAW          0.3880     3.7110     0.7130 c5         1 UGI       0.238300
     22 NAG         -3.1230    -1.2220     0.0960 nh         1 UGI      -0.775300
     23 CAJ         -3.1800    -2.7010    -0.1720 c6         1 UGI       0.181300
     24 CAK         -4.5410    -3.1620    -0.7720 c6         1 UGI       0.142100
     25 OAL         -5.6490    -2.6660     0.0110 os         1 UGI      -0.442000
     26 CAM         -5.6800    -1.2220     0.0590 c6         1 UGI       0.142100
     27 CAN         -4.3810    -0.6580     0.7070 c6         1 UGI       0.181300
     28 H1          -0.6000    -2.3070     0.2420 ha         1 UGI       0.130000
     29 H2           5.1330    -1.1700    -0.4920 ha         1 UGI       0.138000
     30 H3           6.0370    -3.2120     0.5760 hn         1 UGI       0.483000
     31 H4           5.1100    -4.0270     1.7780 hn         1 UGI       0.483000
     32 H5           1.1610    -2.5220     2.0370 h4         1 UGI       0.026100
     33 H6          -2.7130     3.3130    -0.3940 h1         1 UGI       0.055700
     34 H7          -2.6460     3.5900     1.3680 h1         1 UGI       0.055700
     35 H8          -1.2520     5.2120    -0.8690 hc         1 UGI       0.052700
     36 H9          -2.2370     5.8460     0.4550 hc         1 UGI       0.052700
     37 H10          0.4090     5.9160     0.8920 hc         1 UGI       0.052700
     38 H11         -0.5270     5.1000     2.1510 hc         1 UGI       0.052700
     39 H12          1.0590     3.3550     1.5080 h1         1 UGI       0.055700
     40 H13          0.9610     3.7830    -0.2220 h1         1 UGI       0.055700
     41 H14         -2.3950    -2.9920    -0.8850 h1         1 UGI       0.058700
     42 H15         -2.9990    -3.2570     0.7600 h1         1 UGI       0.058700
     43 H16         -4.6360    -2.7940    -1.8040 h1         1 UGI       0.053700
     44 H17         -4.5830    -4.2600    -0.8000 h1         1 UGI       0.053700
     45 H18         -5.7870    -0.8290    -0.9630 h1         1 UGI       0.053700
     46 H19         -6.5550    -0.8990     0.6390 h1         1 UGI       0.053700
     47 H20         -4.4010    -0.8820     1.7840 h1         1 UGI       0.058700
     48 H21         -4.4170     0.4370     0.6070 h1         1 UGI       0.058700
     49 CAY          2.9950     0.3990    -1.3000 c3         1 UGI       0.362300
@<TRIPOS>BOND
     1     1     2 ar  
     2     1     5 ar  
     3     1    15 1   
     4     2     3 ar  
     5     2    28 1   
     6     3     4 ar  
     7     3    22 1   
     8     4    16 ar  
     9     5    16 ar  
    10     6    49 1   
    11     7    49 1   
    12     8    49 1   
    13     9    10 ar  
    14     9    15 ar  
    15     9    49 1   
    16    10    11 ar  
    17    10    29 1   
    18    11    12 1   
    19    11    13 ar  
    20    12    30 1   
    21    12    31 1   
    22    13    14 ar  
    23    14    15 ar  
    24    14    32 1   
    25    16    17 1   
    26    17    18 1   
    27    17    21 1   
    28    18    19 1   
    29    18    33 1   
    30    18    34 1   
    31    19    20 1   
    32    19    35 1   
    33    19    36 1   
    34    20    21 1   
    35    20    37 1   
    36    20    38 1   
    37    21    39 1   
    38    21    40 1   
    39    22    23 1   
    40    22    27 1   
    41    23    24 1   
    42    23    41 1   
    43    23    42 1   
    44    24    25 1   
    45    24    43 1   
    46    24    44 1   
    47    25    26 1   
    48    26    27 1   
    49    26    45 1   
    50    26    46 1   
    51    27    47 1   
    52    27    48 1   
@<TRIPOS>SUBSTRUCTURE
     1 UGI         1 TEMP              0 ****  ****    0 ROOT
