@<TRIPOS>MOLECULE
UGJ
   30    32     1     0     0
SMALL
No Charge or Current Charge


@<TRIPOS>ATOM
      1 N01          1.1710     2.1350    -0.3060 nv         1 UGJ      -0.955000
      2 C02          1.6810     0.8750    -0.2190 cc         1 UGJ       0.307800
      3 C03          3.0190     0.5580    -0.0990 cd         1 UGJ      -0.148100
      4 S04          3.3500    -1.1860    -0.0070 ss         1 UGJ      -0.060900
      5 C05          1.6040    -1.4690    -0.1330 ca         1 UGJ       0.487300
      6 C06          0.8430    -0.3130    -0.2400 ca         1 UGJ      -0.228800
      7 C07         -0.5680    -0.4280    -0.3380 cp         1 UGJ       0.144000
      8 C08         -1.4640     0.7600    -0.4510 cp         1 UGJ      -0.079000
      9 C09         -1.7280     1.3380    -1.7150 ca         1 UGJ      -0.077000
     10 C10         -2.5690     2.4580    -1.8320 ca         1 UGJ      -0.108000
     11 C11         -3.1620     3.0140    -0.6860 ca         1 UGJ      -0.089000
     12 C12         -2.9140     2.4480     0.5760 ca         1 UGJ      -0.105000
     13 C13         -2.0730     1.3290     0.6960 ca         1 UGJ       0.127000
     14 Cl          -1.7860     0.6550     2.2980 cl         1 UGJ      -0.177000
     15 C15         -1.1010    -1.7400    -0.3240 ca         1 UGJ      -0.160000
     16 C16         -2.5100    -1.9770    -0.4220 cg         1 UGJ       0.334000
     17 N17         -3.6590    -2.1680    -0.4910 n1         1 UGJ      -0.461000
     18 C18         -0.2110    -2.8180    -0.2140 ca         1 UGJ       0.693900
     19 N19         -0.5420    -4.1130    -0.1790 nv         1 UGJ      -1.070900
     20 N20          1.1030    -2.7170    -0.1170 nb         1 UGJ      -0.752000
     21 C21          4.1250     1.4420    -0.0410 ch         1 UGJ       0.329700
     22 N22          5.0240     2.1870    -0.0110 n1         1 UGJ      -0.485000
     23 H011         1.7930     2.9330    -0.4200 hn         1 UGJ       0.498500
     24 H012         0.1890     2.2730    -0.5310 hn         1 UGJ       0.498500
     25 H09         -1.2750     0.9120    -2.6090 ha         1 UGJ       0.131000
     26 H10         -2.7630     2.8930    -2.8110 ha         1 UGJ       0.127000
     27 H11         -3.8140     3.8810    -0.7760 ha         1 UGJ       0.124000
     28 H12         -3.3740     2.8770     1.4630 ha         1 UGJ       0.136000
     29 H191        -1.4630    -4.3460     0.1770 hn         1 UGJ       0.509000
     30 H192         0.2130    -4.7170     0.1210 hn         1 UGJ       0.509000
@<TRIPOS>BOND
     1     1     2 1   
     2     1    23 1   
     3     1    24 1   
     4     2     3 2   
     5     2     6 1   
     6     3     4 1   
     7     3    21 1   
     8     4     5 1   
     9     5     6 ar  
    10     5    20 ar  
    11     6     7 ar  
    12     7     8 1   
    13     7    15 ar  
    14     8     9 ar  
    15     8    13 ar  
    16     9    10 ar  
    17     9    25 1   
    18    10    11 ar  
    19    10    26 1   
    20    11    12 ar  
    21    11    27 1   
    22    12    13 ar  
    23    12    28 1   
    24    13    14 1   
    25    15    16 1   
    26    15    18 ar  
    27    16    17 3   
    28    18    19 1   
    29    18    20 ar  
    30    19    29 1   
    31    19    30 1   
    32    21    22 3   
@<TRIPOS>SUBSTRUCTURE
     1 UGJ         1 TEMP              0 ****  ****    0 ROOT
