@<TRIPOS>MOLECULE
UGJ
   30    32     1     0     0
SMALL
bcc


@<TRIPOS>ATOM
      1 N01          1.2430     2.1780    -0.3060 nv         1 UGJ      -0.844600
      2 C02          1.6950     0.9230    -0.1970 cc         1 UGJ       0.307800
      3 C03          3.0290     0.5770    -0.0790 cd         1 UGJ      -0.148100
      4 S04          3.3100    -1.1540     0.0120 ss         1 UGJ      -0.060900
      5 C05          1.6140    -1.4450    -0.1030 ca         1 UGJ       0.552600
      6 C06          0.8650    -0.2580    -0.2130 ca         1 UGJ      -0.294100
      7 C07         -0.5200    -0.4060    -0.3120 cp         1 UGJ       0.144000
      8 C08         -1.4410     0.7440    -0.4510 cp         1 UGJ      -0.079000
      9 C09         -1.8040     1.1950    -1.7170 ca         1 UGJ      -0.095000
     10 C10         -2.6670     2.2700    -1.8590 ca         1 UGJ      -0.126000
     11 C11         -3.1760     2.9010    -0.7320 ca         1 UGJ      -0.107000
     12 C12         -2.8300     2.4610     0.5360 ca         1 UGJ      -0.123000
     13 C13         -1.9660     1.3850     0.6680 ca         1 UGJ       0.035400
     14 CL          -1.5210     0.8350     2.2450 cl         1 UGJ      -0.085400
     15 C15         -1.0430    -1.6880    -0.2920 ca         1 UGJ      -0.225300
     16 C16         -2.4460    -1.8820    -0.3720 cg         1 UGJ       0.244800
     17 N17         -3.5810    -2.0800    -0.4320 n1         1 UGJ      -0.371800
     18 C18         -0.1790    -2.8230    -0.1760 ca         1 UGJ       0.759200
     19 N19         -0.6660    -4.0630    -0.1580 nv         1 UGJ      -0.960500
     20 N20          1.1380    -2.6710    -0.0840 nb         1 UGJ      -0.752000
     21 C21          4.0900     1.4830    -0.0300 ch         1 UGJ       0.240500
     22 N22          4.9630     2.2420     0.0100 n1         1 UGJ      -0.395800
     23 H011         1.8650     2.9600    -0.1930 hn         1 UGJ       0.443300
     24 H012         0.2620     2.3860    -0.2920 hn         1 UGJ       0.443300
     25 H09         -1.3970     0.7020    -2.5900 ha         1 UGJ       0.149000
     26 H10         -2.9380     2.6150    -2.8470 ha         1 UGJ       0.145000
     27 H11         -3.8470     3.7430    -0.8350 ha         1 UGJ       0.142000
     28 H12         -3.2240     2.9510     1.4160 ha         1 UGJ       0.154000
     29 H191        -1.6500    -4.2620    -0.2050 hn         1 UGJ       0.453800
     30 H192        -0.0380    -4.8420    -0.0510 hn         1 UGJ       0.453800
@<TRIPOS>BOND
     1     1     2 1   
     2     1    23 1   
     3     1    24 1   
     4     2     3 2   
     5     2     6 1   
     6     3     4 1   
     7     3    21 1   
     8     4     5 1   
     9     5     6 ar  
    10     5    20 ar  
    11     6     7 ar  
    12     7     8 1   
    13     7    15 ar  
    14     8     9 ar  
    15     8    13 ar  
    16     9    10 ar  
    17     9    25 1   
    18    10    11 ar  
    19    10    26 1   
    20    11    12 ar  
    21    11    27 1   
    22    12    13 ar  
    23    12    28 1   
    24    13    14 1   
    25    15    16 1   
    26    15    18 ar  
    27    16    17 3   
    28    18    19 1   
    29    18    20 ar  
    30    19    29 1   
    31    19    30 1   
    32    21    22 3   
@<TRIPOS>SUBSTRUCTURE
     1 UGJ         1 TEMP              0 ****  ****    0 ROOT
