@<TRIPOS>MOLECULE
UGK
   54    58     1     0     0
SMALL
No Charge or Current Charge


@<TRIPOS>ATOM
      1 C1         191.2830   243.8790   237.5880 c3         1 UGK       0.145900
      2 N6         194.7470   244.9090   235.3200 nb         1 UGK      -0.606000
      3 C7         193.6340   244.5590   236.0100 ca         1 UGK       0.239900
      4 C8         193.1710   243.2200   236.1280 ca         1 UGK       0.126100
      5 C9         193.9140   242.1890   235.5000 ca         1 UGK      -0.001400
      6 C13        194.3990   239.8850   236.3760 c          1 UGK       0.599000
      7 C15        186.2810   240.8750   233.0580 c3         1 UGK       0.145900
      8 C19        188.9860   243.4110   231.3070 cc         1 UGK      -0.119000
      9 C22        190.5610   244.4900   232.4440 cd         1 UGK       0.275300
     10 C24        191.0110   241.7940   234.0500 ca         1 UGK      -0.068000
     11 C27        188.7600   240.1600   234.3530 ca         1 UGK      -0.188000
     12 C30        192.2460   240.2560   235.5790 ca         1 UGK       0.077600
     13 C31        192.2510   239.0500   236.2610 ca         1 UGK      -0.086400
     14 C32        191.1180   238.2300   236.2770 ca         1 UGK       0.377900
     15 C17        191.5360   244.9410   233.4930 c3         1 UGK      -0.122400
     16 C18        188.7080   245.2470   229.5610 c3         1 UGK       0.078900
     17 C23        189.8250   243.2690   232.3860 cd         1 UGK      -0.164000
     18 C25        189.8290   242.1250   233.3450 ca         1 UGK       0.014000
     19 C26        188.6840   241.3020   233.5300 ca         1 UGK       0.152100
     20 C28        189.9420   239.8080   235.0100 ca         1 UGK       0.300000
     21 C29        191.0740   240.6620   234.8940 ca         1 UGK      -0.079000
     22 C4         195.0870   242.5570   234.8050 ca         1 UGK       0.177000
     23 C5         195.4540   243.9150   234.7290 ca         1 UGK       0.267900
     24 F3         195.8440   241.6230   234.1800 f          1 UGK      -0.150000
     25 N12        193.5830   238.7930   236.6850 n          1 UGK      -0.280000
     26 N14        193.5790   240.7980   235.6830 n          1 UGK      -0.200200
     27 N20        189.3090   244.6430   230.7590 na         1 UGK       0.119800
     28 N21        190.2740   245.3200   231.4600 nc         1 UGK      -0.532800
     29 N33        189.9650   238.6300   235.6910 nb         1 UGK      -0.672000
     30 O16        187.4910   241.6400   232.9110 os         1 UGK      -0.350100
     31 O2         192.0600   242.8900   236.8890 os         1 UGK      -0.325100
     32 H1         190.4530   243.3990   238.1220 h1         1 UGK       0.051700
     33 H2         191.8980   244.4110   238.3240 h1         1 UGK       0.051700
     34 H3         190.8570   244.6100   236.8890 h1         1 UGK       0.051700
     35 H4         193.1060   245.3850   236.4820 h4         1 UGK       0.032100
     36 H5         195.0600   237.5390   237.5390 h1         1 UGK       0.054033
     37 H6         193.7160   237.9860   238.6320 h1         1 UGK       0.054033
     38 H7         193.4570   236.7840   237.3330 h1         1 UGK       0.054033
     39 H8         185.4690   241.3370   232.4830 h1         1 UGK       0.044700
     40 H9         186.4180   239.8510   232.6880 h1         1 UGK       0.044700
     41 H10        185.9700   240.8340   234.1100 h1         1 UGK       0.044700
     42 H11        188.2340   242.7620   230.8770 h4         1 UGK       0.161000
     43 H12        191.9090   242.3690   233.8750 ha         1 UGK       0.122000
     44 H13        187.9050   239.5040   234.4770 ha         1 UGK       0.135000
     45 H14        191.1190   237.2570   236.7660 h4         1 UGK       0.026100
     46 H15        191.6260   246.0340   233.5170 hc         1 UGK       0.047700
     47 H16        191.2070   244.6220   234.4870 hc         1 UGK       0.047700
     48 H17        192.5330   244.5320   233.2980 hc         1 UGK       0.047700
     49 H18        188.1850   246.1700   229.8390 h1         1 UGK       0.056367
     50 H19        189.4950   245.4790   228.8330 h1         1 UGK       0.056367
     51 H20        187.9940   244.5480   229.1100 h1         1 UGK       0.056367
     52 H21        196.3460   244.2150   234.1810 h4         1 UGK       0.046100
     53 O10        195.5640   240.0460   236.7180 o          1 UGK      -0.547000
     54 C11        193.9780   237.7100   237.6030 c3         1 UGK       0.108300
@<TRIPOS>BOND
     1     1    31 1   
     2     1    32 1   
     3     1    33 1   
     4     1    34 1   
     5     2     3 ar  
     6     2    23 ar  
     7     3     4 ar  
     8     3    35 1   
     9     4     5 ar  
    10     4    31 1   
    11     5    22 ar  
    12     5    26 1   
    13     6    25 1   
    14     6    26 1   
    15     6    53 2   
    16     7    30 1   
    17     7    39 1   
    18     7    40 1   
    19     7    41 1   
    20     8    17 2   
    21     8    27 1   
    22     8    42 1   
    23     9    15 1   
    24     9    17 1   
    25     9    28 2   
    26    10    18 ar  
    27    10    21 ar  
    28    10    43 1   
    29    11    19 ar  
    30    11    20 ar  
    31    11    44 1   
    32    12    13 ar  
    33    12    21 ar  
    34    12    26 1   
    35    13    14 ar  
    36    13    25 1   
    37    14    29 ar  
    38    14    45 1   
    39    15    46 1   
    40    15    47 1   
    41    15    48 1   
    42    16    27 1   
    43    16    49 1   
    44    16    50 1   
    45    16    51 1   
    46    17    18 1   
    47    18    19 ar  
    48    19    30 1   
    49    20    21 ar  
    50    20    29 ar  
    51    22    23 ar  
    52    22    24 1   
    53    23    52 1   
    54    25    54 1   
    55    27    28 1   
    56    36    54 1   
    57    37    54 1   
    58    38    54 1   
@<TRIPOS>SUBSTRUCTURE
     1 UGK         1 TEMP              0 ****  ****    0 ROOT
