@<TRIPOS>MOLECULE
UGK
   54    58     1     0     0
SMALL
abcg2


@<TRIPOS>ATOM
      1 C1         192.0380   244.1810   238.0230 c3         1 UGK       0.145900
      2 N6         194.7650   244.7190   234.9110 nb         1 UGK      -0.606000
      3 C7         193.9050   244.5500   235.9150 ca         1 UGK       0.239900
      4 C8         193.3830   243.2990   236.2610 ca         1 UGK       0.126100
      5 C9         193.7980   242.1840   235.5180 ca         1 UGK      -0.001400
      6 C13        194.1370   240.0700   236.7160 c          1 UGK       0.599000
      7 C15        186.5110   240.5460   232.5750 c3         1 UGK       0.145900
      8 C19        189.0510   243.4460   231.2400 cc         1 UGK      -0.119000
      9 C22        190.3080   244.5480   232.6990 cd         1 UGK       0.275300
     10 C24        190.9170   241.7910   234.0220 ca         1 UGK      -0.068000
     11 C27        188.8070   239.9720   234.0640 ca         1 UGK      -0.188000
     12 C30        192.1480   240.2720   235.6000 ca         1 UGK       0.077600
     13 C31        192.1570   239.0670   236.2890 ca         1 UGK      -0.086400
     14 C32        191.0610   238.2060   236.2300 ca         1 UGK       0.377900
     15 C17        191.1410   244.9960   233.8520 c3         1 UGK      -0.122400
     16 C18        188.7760   245.3480   229.6310 c3         1 UGK       0.078900
     17 C23        189.7110   243.2770   232.4530 cd         1 UGK      -0.164000
     18 C25        189.7940   242.0650   233.2710 ca         1 UGK       0.014000
     19 C26        188.7130   241.1190   233.3160 ca         1 UGK       0.152100
     20 C28        189.9620   239.6820   234.8260 ca         1 UGK       0.300000
     21 C29        191.0360   240.6280   234.8160 ca         1 UGK      -0.079000
     22 C4         194.6890   242.3980   234.4830 ca         1 UGK       0.177000
     23 C5         195.1560   243.6690   234.1920 ca         1 UGK       0.267900
     24 F3         195.1000   241.3510   233.7490 f          1 UGK      -0.150000
     25 N12        193.3710   238.9580   236.9560 n          1 UGK      -0.280000
     26 N14        193.3670   240.8830   235.8580 n          1 UGK      -0.200200
     27 N20        189.2700   244.7070   230.8330 na         1 UGK       0.119800
     28 N21        190.0250   245.3990   231.7130 nc         1 UGK      -0.532800
     29 N33        189.9880   238.5110   235.5210 nb         1 UGK      -0.672000
     30 O16        187.6200   241.4430   232.5820 os         1 UGK      -0.350100
     31 O2         192.5060   243.0670   237.2490 os         1 UGK      -0.325100
     32 H1         191.3430   243.7620   238.7440 h1         1 UGK       0.051700
     33 H2         192.8680   244.6630   238.5420 h1         1 UGK       0.051700
     34 H3         191.5250   244.9010   237.3840 h1         1 UGK       0.051700
     35 H4         193.6160   245.4370   236.4610 h4         1 UGK       0.032100
     36 H5         194.7820   238.0620   238.1690 h1         1 UGK       0.054033
     37 H6         193.0980   237.7380   238.6360 h1         1 UGK       0.054033
     38 H7         193.8010   236.9250   237.2190 h1         1 UGK       0.054033
     39 H8         185.7660   241.0030   231.9290 h1         1 UGK       0.044700
     40 H9         186.8000   239.5710   232.1740 h1         1 UGK       0.044700
     41 H10        186.1030   240.4200   233.5800 h1         1 UGK       0.044700
     42 H11        188.4600   242.7630   230.6560 h4         1 UGK       0.161000
     43 H12        191.7500   242.4730   233.9740 ha         1 UGK       0.122000
     44 H13        188.0030   239.2530   234.0950 ha         1 UGK       0.135000
     45 H14        191.0610   237.2650   236.7690 h4         1 UGK       0.026100
     46 H15        191.1140   246.0830   233.9330 hc         1 UGK       0.047700
     47 H16        190.7890   244.5650   234.7900 hc         1 UGK       0.047700
     48 H17        192.1830   244.6970   233.7270 hc         1 UGK       0.047700
     49 H18        188.1120   246.1720   229.8910 h1         1 UGK       0.056367
     50 H19        189.6110   245.7290   229.0440 h1         1 UGK       0.056367
     51 H20        188.2290   244.6110   229.0470 h1         1 UGK       0.056367
     52 H21        195.8510   243.8240   233.3770 h4         1 UGK       0.046100
     53 O10        195.2500   240.3350   237.1410 o          1 UGK      -0.547000
     54 C11        193.7840   237.8500   237.7960 c3         1 UGK       0.108300
@<TRIPOS>BOND
     1     1    31 1   
     2     1    32 1   
     3     1    33 1   
     4     1    34 1   
     5     2     3 ar  
     6     2    23 ar  
     7     3     4 ar  
     8     3    35 1   
     9     4     5 ar  
    10     4    31 1   
    11     5    22 ar  
    12     5    26 1   
    13     6    25 1   
    14     6    26 1   
    15     6    53 2   
    16     7    30 1   
    17     7    39 1   
    18     7    40 1   
    19     7    41 1   
    20     8    17 2   
    21     8    27 1   
    22     8    42 1   
    23     9    15 1   
    24     9    17 1   
    25     9    28 2   
    26    10    18 ar  
    27    10    21 ar  
    28    10    43 1   
    29    11    19 ar  
    30    11    20 ar  
    31    11    44 1   
    32    12    13 ar  
    33    12    21 ar  
    34    12    26 1   
    35    13    14 ar  
    36    13    25 1   
    37    14    29 ar  
    38    14    45 1   
    39    15    46 1   
    40    15    47 1   
    41    15    48 1   
    42    16    27 1   
    43    16    49 1   
    44    16    50 1   
    45    16    51 1   
    46    17    18 1   
    47    18    19 ar  
    48    19    30 1   
    49    20    21 ar  
    50    20    29 ar  
    51    22    23 ar  
    52    22    24 1   
    53    23    52 1   
    54    25    54 1   
    55    27    28 1   
    56    36    54 1   
    57    37    54 1   
    58    38    54 1   
@<TRIPOS>SUBSTRUCTURE
     1 UGK         1 TEMP              0 ****  ****    0 ROOT
