@<TRIPOS>MOLECULE
UGL
   27    27     1     0     0
SMALL
No Charge or Current Charge


@<TRIPOS>ATOM
      1 C1         -43.9120    -7.5650    18.2250 c3         1 UGL      -0.100100
      2 C2         -42.4800    -7.4530    18.7880 c3         1 UGL       0.099700
      3 C3         -42.4310    -7.7350    20.3110 c3         1 UGL      -0.069400
      4 C4         -41.0020    -7.7240    20.9170 c3         1 UGL      -0.200400
      5 C5         -41.0520    -8.1180    22.4040 c          1 UGL       0.707000
      6 O1         -40.9770    -9.3030    22.6890 o          1 UGL      -0.745000
      7 O2         -41.2160    -7.2330    23.2300 o          1 UGL      -0.745000
      8 N1         -41.9090    -6.1420    18.4750 ns         1 UGL      -0.476900
      9 O3         -41.1630    -6.6040    16.3680 o          1 UGL      -0.623100
     10 C7         -40.8000    -4.3770    17.2570 cc         1 UGL       0.212500
     11 C8         -40.1420    -3.8470    16.1310 cc         1 UGL      -0.168000
     12 C9         -39.8290    -2.5520    16.4100 cd         1 UGL      -0.194000
     13 N2         -40.3150    -2.3470    17.7080 na         1 UGL      -0.009200
     14 N3         -40.9220    -3.4870    18.2370 nd         1 UGL      -0.513800
     15 H3         -43.9160    -7.4070    17.1400 hc         1 UGL       0.030367
     16 H1         -44.3290    -8.5590    18.4240 hc         1 UGL       0.030367
     17 H2         -44.5710    -6.8170    18.6830 hc         1 UGL       0.030367
     18 H4         -41.8670    -8.2190    18.2920 h1         1 UGL       0.075700
     19 H6         -43.0520    -6.9990    20.8370 hc         1 UGL       0.043700
     20 H5         -42.8840    -8.7170    20.4980 hc         1 UGL       0.043700
     21 H8         -40.4280    -8.4650    20.3470 hc         1 UGL       0.026200
     22 H7         -40.6280    -6.6990    20.8110 hc         1 UGL       0.026200
     23 H9         -41.9540    -5.4100    19.1750 hn         1 UGL       0.319500
     24 H10        -39.9320    -4.3920    15.2160 ha         1 UGL       0.158000
     25 H11        -39.3240    -1.7900    15.8270 h4         1 UGL       0.146000
     26 H12        -40.2550    -1.4800    18.2440 hn         1 UGL       0.366000
     27 C6         -41.2890    -5.8000    17.2880 c          1 UGL       0.530600
@<TRIPOS>BOND
     1     1     2 1   
     2     1    15 1   
     3     1    16 1   
     4     1    17 1   
     5     2     3 1   
     6     2     8 1   
     7     2    18 1   
     8     3     4 1   
     9     3    19 1   
    10     3    20 1   
    11     4     5 1   
    12     4    21 1   
    13     4    22 1   
    14     5     6 1   
    15     5     7 1   
    16     8    23 1   
    17     8    27 1   
    18     9    27 2   
    19    10    11 1   
    20    10    14 2   
    21    10    27 1   
    22    11    12 2   
    23    11    24 1   
    24    12    13 1   
    25    12    25 1   
    26    13    14 1   
    27    13    26 1   
@<TRIPOS>SUBSTRUCTURE
     1 UGL         1 TEMP              0 ****  ****    0 ROOT
