@<TRIPOS>MOLECULE
UGL
   27    27     1     0     0
SMALL
abcg2


@<TRIPOS>ATOM
      1 C1         -44.1940    -7.5270    18.3840 c3         1 UGL      -0.100100
      2 C2         -42.7100    -7.4280    18.7270 c3         1 UGL       0.099700
      3 C3         -42.4470    -7.6770    20.2160 c3         1 UGL      -0.069400
      4 C4         -40.9650    -7.7030    20.5800 c3         1 UGL      -0.200400
      5 C5         -40.6950    -7.9640    22.0730 c          1 UGL       0.707000
      6 O1         -41.3090    -8.9240    22.6100 o          1 UGL      -0.745000
      7 O2         -39.8650    -7.2100    22.6460 o          1 UGL      -0.745000
      8 N1         -42.1940    -6.1230    18.3260 ns         1 UGL      -0.476900
      9 O3         -40.4910    -6.8300    16.9820 o          1 UGL      -0.623100
     10 C7         -40.7290    -4.5050    17.3530 cc         1 UGL       0.212500
     11 C8         -39.6480    -4.0180    16.5900 cc         1 UGL      -0.168000
     12 C9         -39.6940    -2.6500    16.7520 cd         1 UGL      -0.194000
     13 N2         -40.7470    -2.3970    17.5630 na         1 UGL      -0.009200
     14 N3         -41.3910    -3.5050    17.9440 nd         1 UGL      -0.513800
     15 H3         -44.3550    -7.3750    17.3160 hc         1 UGL       0.030367
     16 H1         -44.5790    -8.5110    18.6570 hc         1 UGL       0.030367
     17 H2         -44.7660    -6.7730    18.9300 hc         1 UGL       0.030367
     18 H4         -42.1530    -8.1620    18.1430 h1         1 UGL       0.075700
     19 H6         -42.9590    -6.8990    20.7950 hc         1 UGL       0.043700
     20 H5         -42.9050    -8.6280    20.4930 hc         1 UGL       0.043700
     21 H8         -40.4730    -8.5010    20.0120 hc         1 UGL       0.026200
     22 H7         -40.4880    -6.7650    20.2950 hc         1 UGL       0.026200
     23 H9         -42.6110    -5.3030    18.7430 hn         1 UGL       0.319500
     24 H10        -38.9420    -4.5870    16.0110 ha         1 UGL       0.158000
     25 H11        -39.0770    -1.8570    16.3650 h4         1 UGL       0.146000
     26 H12        -41.0650    -1.4960    17.8880 hn         1 UGL       0.366000
     27 C6         -41.1260    -5.9250    17.5360 c          1 UGL       0.530600
@<TRIPOS>BOND
     1     1     2 1   
     2     1    15 1   
     3     1    16 1   
     4     1    17 1   
     5     2     3 1   
     6     2     8 1   
     7     2    18 1   
     8     3     4 1   
     9     3    19 1   
    10     3    20 1   
    11     4     5 1   
    12     4    21 1   
    13     4    22 1   
    14     5     6 1   
    15     5     7 1   
    16     8    23 1   
    17     8    27 1   
    18     9    27 2   
    19    10    11 1   
    20    10    14 2   
    21    10    27 1   
    22    11    12 2   
    23    11    24 1   
    24    12    13 1   
    25    12    25 1   
    26    13    14 1   
    27    13    26 1   
@<TRIPOS>SUBSTRUCTURE
     1 UGL         1 TEMP              0 ****  ****    0 ROOT
