@<TRIPOS>MOLECULE
UGM
   28    29     1     0     0
SMALL
No Charge or Current Charge


@<TRIPOS>ATOM
      1 N1          15.2430    -1.4790    21.9270 n1         1 UGM      -0.438000
      2 N3           6.3440     1.1880    17.6910 nb         1 UGM      -0.646000
      3 C4          12.6990     0.4220    23.4460 ca         1 UGM       0.382900
      4 C5          12.8630    -0.7050    22.6240 ca         1 UGM      -0.069000
      5 C6          14.1760    -1.1270    22.2430 cg         1 UGM       0.324000
      6 C7          11.7210    -1.4010    22.1870 ca         1 UGM      -0.009000
      7 C8           6.8020     0.4920    19.9860 ca         1 UGM      -0.076000
      8 C10          4.9640     1.9910    19.5120 ca         1 UGM      -0.135000
      9 N           11.4850     0.8770    23.8420 nb         1 UGM      -0.662000
     10 C3          10.3900     0.2040    23.4200 ca         1 UGM       0.366900
     11 C2          10.4550    -0.9390    22.5940 ca         1 UGM      -0.130300
     12 C1           9.1810    -1.6550    22.1410 c3         1 UGM      -0.112100
     13 C            8.6630    -1.0720    20.8180 c          1 UGM       0.606100
     14 O            9.2060    -1.3280    19.7510 o          1 UGM      -0.561100
     15 N2           7.5590    -0.2390    20.9470 ns         1 UGM      -0.144000
     16 C12          7.0740     0.4860    18.5930 ca         1 UGM       0.324900
     17 C11          5.3070     1.9260    18.1510 ca         1 UGM       0.313900
     18 C9           5.7200     1.2640    20.4470 ca         1 UGM      -0.134000
     19 H1          13.5620     0.9840    23.8010 h4         1 UGM       0.034100
     20 H2          11.8150    -2.2770    21.5460 ha         1 UGM       0.136000
     21 H3           4.1210     2.5990    19.8300 ha         1 UGM       0.125000
     22 H4           9.4290     0.5940    23.7530 h4         1 UGM       0.021100
     23 H5           8.4130    -1.5510    22.9180 hc         1 UGM       0.071200
     24 H6           9.3930    -2.7200    21.9900 hc         1 UGM       0.071200
     25 H7           7.2300    -0.1280    21.8980 hn         1 UGM       0.150000
     26 H8           7.8940    -0.0890    18.1690 h4         1 UGM       0.053100
     27 H9           4.7360     2.4800    17.4070 h4         1 UGM       0.023100
     28 H10          5.4690     1.3030    21.5050 ha         1 UGM       0.114000
@<TRIPOS>BOND
     1     1     5 3   
     2     2    16 ar  
     3     2    17 ar  
     4     3     4 ar  
     5     3     9 ar  
     6     3    19 1   
     7     4     5 1   
     8     4     6 ar  
     9     6    11 ar  
    10     6    20 1   
    11     7    15 1   
    12     7    16 ar  
    13     7    18 ar  
    14     8    17 ar  
    15     8    18 ar  
    16     8    21 1   
    17     9    10 ar  
    18    10    11 ar  
    19    10    22 1   
    20    11    12 1   
    21    12    13 1   
    22    12    23 1   
    23    12    24 1   
    24    13    14 2   
    25    13    15 1   
    26    15    25 1   
    27    16    26 1   
    28    17    27 1   
    29    18    28 1   
@<TRIPOS>SUBSTRUCTURE
     1 UGM         1 TEMP              0 ****  ****    0 ROOT
