@<TRIPOS>MOLECULE
UGM
   28    29     1     0     0
SMALL
abcg2


@<TRIPOS>ATOM
      1 N1          14.6930    -2.6520    21.4570 n1         1 UGM      -0.438000
      2 N3           6.4930     1.4160    17.7510 nb         1 UGM      -0.646000
      3 C4          13.2590    -0.0910    23.3390 ca         1 UGM       0.382900
      4 C5          12.8860    -1.1350    22.4920 ca         1 UGM      -0.069000
      5 C6          13.8820    -1.9760    21.9170 cg         1 UGM       0.324000
      6 C7          11.5370    -1.3400    22.2220 ca         1 UGM      -0.009000
      7 C8           6.6780     0.5530    19.9720 ca         1 UGM      -0.076000
      8 C10          4.5250     0.9960    19.0150 ca         1 UGM      -0.135000
      9 N           12.3740     0.7100    23.9010 nb         1 UGM      -0.662000
     10 C3          11.0870     0.5080    23.6400 ca         1 UGM       0.366900
     11 C2          10.6060    -0.4990    22.8100 ca         1 UGM      -0.130300
     12 C1           9.1420    -0.6500    22.5530 c3         1 UGM      -0.112100
     13 C            8.7420    -0.0910    21.1960 c          1 UGM       0.606100
     14 O            9.5500     0.1210    20.3140 o          1 UGM      -0.561100
     15 N2           7.4060     0.1120    21.0770 ns         1 UGM      -0.144000
     16 C12          7.2350     0.9990    18.7700 ca         1 UGM       0.324900
     17 C11          5.1730     1.4170    17.8640 ca         1 UGM       0.313900
     18 C9           5.2870     0.5580    20.0800 ca         1 UGM      -0.134000
     19 H1          14.3050     0.0860    23.5610 h4         1 UGM       0.034100
     20 H2          11.2270    -2.1520    21.5770 ha         1 UGM       0.136000
     21 H3           3.4460     1.0090    19.0770 ha         1 UGM       0.125000
     22 H4          10.3890     1.1830    24.1240 h4         1 UGM       0.021100
     23 H5           8.5640    -0.1670    23.3450 hc         1 UGM       0.071200
     24 H6           8.8590    -1.7070    22.5720 hc         1 UGM       0.071200
     25 H7           6.8480    -0.1180    21.8860 hn         1 UGM       0.150000
     26 H8           8.3040     1.0220    18.6240 h4         1 UGM       0.053100
     27 H9           4.6080     1.7670    17.0080 h4         1 UGM       0.023100
     28 H10          4.8110     0.2190    20.9920 ha         1 UGM       0.114000
@<TRIPOS>BOND
     1     1     5 3   
     2     2    16 ar  
     3     2    17 ar  
     4     3     4 ar  
     5     3     9 ar  
     6     3    19 1   
     7     4     5 1   
     8     4     6 ar  
     9     6    11 ar  
    10     6    20 1   
    11     7    15 1   
    12     7    16 ar  
    13     7    18 ar  
    14     8    17 ar  
    15     8    18 ar  
    16     8    21 1   
    17     9    10 ar  
    18    10    11 ar  
    19    10    22 1   
    20    11    12 1   
    21    12    13 1   
    22    12    23 1   
    23    12    24 1   
    24    13    14 2   
    25    13    15 1   
    26    15    25 1   
    27    16    26 1   
    28    17    27 1   
    29    18    28 1   
@<TRIPOS>SUBSTRUCTURE
     1 UGM         1 TEMP              0 ****  ****    0 ROOT
