@<TRIPOS>MOLECULE
UGN
   44    45     1     0     0
SMALL
No Charge or Current Charge


@<TRIPOS>ATOM
      1 C01         11.8020    15.4730     0.7790 c3         1 UGN      -0.085100
      2 C02         13.0950    16.3170     0.8410 c3         1 UGN      -0.060700
      3 C03         12.8540    17.7420     0.2670 c3         1 UGN       0.176800
      4 C05         13.6730    20.0440    -0.1140 c6         1 UGN       0.170300
      5 C06         14.9010    21.0050    -0.0840 c6         1 UGN       0.183800
      6 C10         18.0000    21.6590     0.5610 ca         1 UGN      -0.310500
      7 C11         17.5310    22.6130     1.4870 ca         1 UGN      -0.012500
      8 C12         18.0600    22.6480     2.7890 ca         1 UGN      -0.133000
      9 C13         19.0590    21.7380     3.1780 ca         1 UGN      -0.018300
     10 C14         19.5320    20.7930     2.2490 ca         1 UGN      -0.133000
     11 C15         19.0090    20.7510     0.9450 ca         1 UGN      -0.012500
     12 C16         19.6310    21.7810     4.5860 c3         1 UGN      -0.057800
     13 C18         16.3790    19.1330    -0.5970 c6         1 UGN       0.183800
     14 C19         15.1550    18.1670    -0.6230 c6         1 UGN       0.170300
     15 C20         13.6680    16.3480     2.2780 c3         1 UGN      -0.085100
     16 N04         14.0360    18.6410     0.2530 n3         1 UGN      -0.730600
     17 N07         16.0080    20.5300    -0.9650 n3         1 UGN      -0.698500
     18 O09         18.2800    20.9580    -2.0140 o          1 UGN      -0.535000
     19 O17         16.7420    22.9120    -1.4490 o          1 UGN      -0.535000
     20 S08         17.3220    21.6070    -1.1100 sy         1 UGN       1.143600
     21 H1          11.9880    14.4520     1.1320 hc         1 UGN       0.034200
     22 H2          11.0170    15.9150     1.4050 hc         1 UGN       0.034200
     23 H3          11.4280    15.4120    -0.2500 hc         1 UGN       0.034200
     24 H4          13.8280    15.8090     0.2020 hc         1 UGN       0.043700
     25 H5          12.0600    18.2070     0.8670 h1         1 UGN       0.032200
     26 H6          12.4600    17.6430    -0.7540 h1         1 UGN       0.032200
     27 H7          12.9100    20.4330     0.5760 h1         1 UGN       0.043950
     28 H8          13.2360    20.0700    -1.1230 h1         1 UGN       0.043950
     29 H9          15.2460    21.0880     0.9570 h1         1 UGN       0.060700
     30 H10         14.5580    22.0030    -0.3920 h1         1 UGN       0.060700
     31 H11         16.7580    23.3260     1.2050 ha         1 UGN       0.133500
     32 H12         17.6910    23.3870     3.4960 ha         1 UGN       0.117000
     33 H13         20.3090    20.0880     2.5360 ha         1 UGN       0.117000
     34 H14         19.3890    20.0130     0.2410 ha         1 UGN       0.133500
     35 H15         20.4970    22.4510     4.6350 hc         1 UGN       0.049367
     36 H16         18.8880    22.1400     5.3080 hc         1 UGN       0.049367
     37 H17         19.9560    20.7870     4.9170 hc         1 UGN       0.049367
     38 H18         17.1380    18.7370    -1.2860 h1         1 UGN       0.060700
     39 H19         16.8150    19.1040     0.4130 h1         1 UGN       0.060700
     40 H20         14.8070    18.0720    -1.6620 h1         1 UGN       0.043950
     41 H21         15.5040    17.1750    -0.3070 h1         1 UGN       0.043950
     42 H22         13.8290    15.3300     2.6530 hc         1 UGN       0.034200
     43 H23         14.6330    16.8690     2.3060 hc         1 UGN       0.034200
     44 H24         12.9810    16.8610     2.9610 hc         1 UGN       0.034200
@<TRIPOS>BOND
     1     1     2 1   
     2     1    21 1   
     3     1    22 1   
     4     1    23 1   
     5     2     3 1   
     6     2    15 1   
     7     2    24 1   
     8     3    16 1   
     9     3    25 1   
    10     3    26 1   
    11     4     5 1   
    12     4    16 1   
    13     4    27 1   
    14     4    28 1   
    15     5    17 1   
    16     5    29 1   
    17     5    30 1   
    18     6     7 ar  
    19     6    11 ar  
    20     6    20 1   
    21     7     8 ar  
    22     7    31 1   
    23     8     9 ar  
    24     8    32 1   
    25     9    10 ar  
    26     9    12 1   
    27    10    11 ar  
    28    10    33 1   
    29    11    34 1   
    30    12    35 1   
    31    12    36 1   
    32    12    37 1   
    33    13    14 1   
    34    13    17 1   
    35    13    38 1   
    36    13    39 1   
    37    14    16 1   
    38    14    40 1   
    39    14    41 1   
    40    15    42 1   
    41    15    43 1   
    42    15    44 1   
    43    17    20 1   
    44    18    20 2   
    45    19    20 2   
@<TRIPOS>SUBSTRUCTURE
     1 UGN         1 TEMP              0 ****  ****    0 ROOT
