@<TRIPOS>MOLECULE
UGN
   44    45     1     0     0
SMALL
abcg2


@<TRIPOS>ATOM
      1 C01         11.9390    15.5520     0.8880 c3         1 UGN      -0.085100
      2 C02         13.2130    16.3920     0.8730 c3         1 UGN      -0.060700
      3 C03         12.9390    17.7070     0.1440 c3         1 UGN       0.176800
      4 C05         13.6790    19.9760    -0.1990 c6         1 UGN       0.170300
      5 C06         14.8510    20.9190    -0.0080 c6         1 UGN       0.183800
      6 C10         17.9680    21.6490     0.5970 ca         1 UGN      -0.310500
      7 C11         17.4980    22.5680     1.5270 ca         1 UGN      -0.012500
      8 C12         18.0260    22.5640     2.8080 ca         1 UGN      -0.133000
      9 C13         19.0170    21.6570     3.1790 ca         1 UGN      -0.018300
     10 C14         19.4770    20.7510     2.2240 ca         1 UGN      -0.133000
     11 C15         18.9620    20.7400     0.9390 ca         1 UGN      -0.012500
     12 C16         19.5940    21.6720     4.5610 c3         1 UGN      -0.057800
     13 C18         16.3430    19.0950    -0.6020 c6         1 UGN       0.183800
     14 C19         15.1290    18.1990    -0.7640 c6         1 UGN       0.170300
     15 C20         13.7250    16.6300     2.2880 c3         1 UGN      -0.085100
     16 N04         14.0650    18.6200     0.1220 n3         1 UGN      -0.730600
     17 N07         15.9650    20.4870    -0.8550 n3         1 UGN      -0.698500
     18 O09         18.1770    20.9910    -1.9320 o          1 UGN      -0.535000
     19 O17         16.6300    22.8620    -1.3010 o          1 UGN      -0.535000
     20 S08         17.2190    21.5670    -1.0030 sy         1 UGN       1.143600
     21 H1          12.1120    14.5860     1.3630 hc         1 UGN       0.034200
     22 H2          11.1460    16.0580     1.4440 hc         1 UGN       0.034200
     23 H3          11.5690    15.3630    -0.1210 hc         1 UGN       0.034200
     24 H4          13.9730    15.8260     0.3220 hc         1 UGN       0.043700
     25 H5          12.1170    18.2130     0.6620 h1         1 UGN       0.032200
     26 H6          12.5730    17.4900    -0.8750 h1         1 UGN       0.032200
     27 H7          12.8790    20.2940     0.4730 h1         1 UGN       0.043950
     28 H8          13.2990    20.0720    -1.2300 h1         1 UGN       0.043950
     29 H9          15.1410    20.9220     1.0500 h1         1 UGN       0.060700
     30 H10         14.5460    21.9270    -0.2840 h1         1 UGN       0.060700
     31 H11         16.7320    23.2850     1.2660 ha         1 UGN       0.133500
     32 H12         17.6550    23.2790     3.5320 ha         1 UGN       0.117000
     33 H13         20.2490    20.0390     2.4880 ha         1 UGN       0.117000
     34 H14         19.3410    20.0280     0.2170 ha         1 UGN       0.133500
     35 H15         20.4920    22.2910     4.5960 hc         1 UGN       0.049367
     36 H16         18.8890    22.0790     5.2840 hc         1 UGN       0.049367
     37 H17         19.8780    20.6710     4.8850 hc         1 UGN       0.049367
     38 H18         17.1110    18.7890    -1.3100 h1         1 UGN       0.060700
     39 H19         16.7390    18.9710     0.4150 h1         1 UGN       0.060700
     40 H20         14.8070    18.1980    -1.8190 h1         1 UGN       0.043950
     41 H21         15.4410    17.1830    -0.5200 h1         1 UGN       0.043950
     42 H22         13.8990    15.6840     2.8040 hc         1 UGN       0.034200
     43 H23         14.6590    17.1900     2.2920 hc         1 UGN       0.034200
     44 H24         12.9970    17.1970     2.8730 hc         1 UGN       0.034200
@<TRIPOS>BOND
     1     1     2 1   
     2     1    21 1   
     3     1    22 1   
     4     1    23 1   
     5     2     3 1   
     6     2    15 1   
     7     2    24 1   
     8     3    16 1   
     9     3    25 1   
    10     3    26 1   
    11     4     5 1   
    12     4    16 1   
    13     4    27 1   
    14     4    28 1   
    15     5    17 1   
    16     5    29 1   
    17     5    30 1   
    18     6     7 ar  
    19     6    11 ar  
    20     6    20 1   
    21     7     8 ar  
    22     7    31 1   
    23     8     9 ar  
    24     8    32 1   
    25     9    10 ar  
    26     9    12 1   
    27    10    11 ar  
    28    10    33 1   
    29    11    34 1   
    30    12    35 1   
    31    12    36 1   
    32    12    37 1   
    33    13    14 1   
    34    13    17 1   
    35    13    38 1   
    36    13    39 1   
    37    14    16 1   
    38    14    40 1   
    39    14    41 1   
    40    15    42 1   
    41    15    43 1   
    42    15    44 1   
    43    17    20 1   
    44    18    20 2   
    45    19    20 2   
@<TRIPOS>SUBSTRUCTURE
     1 UGN         1 TEMP              0 ****  ****    0 ROOT
