@<TRIPOS>MOLECULE
UGP
   32    33     1     0     0
SMALL
abcg2


@<TRIPOS>ATOM
      1 N1           7.4760    -0.1940    21.0040 ns         1 UGP      -0.162000
      2 C4           7.3270     0.8380    18.8030 ca         1 UGP       0.347900
      3 C5           6.7300     0.4380    19.9950 ca         1 UGP      -0.094000
      4 C6           8.6490     0.2680    21.5050 c          1 UGP       0.603100
      5 C7           9.1650    -0.5310    22.6910 c3         1 UGP      -0.114100
      6 C8          10.6540    -0.4310    22.8290 ca         1 UGP      -0.078300
      7 C10         12.6230     0.7850    23.5370 ca         1 UGP      -0.112000
      8 C13         13.6830    -2.3820    21.9450 cg         1 UGP       0.323000
      9 N2          14.3510    -3.2280    21.5380 n1         1 UGP      -0.452000
     10 C12         12.8570    -1.3330    22.4490 ca         1 UGP      -0.018000
     11 C11         13.4420    -0.2190    23.0480 ca         1 UGP      -0.065000
     12 C9          11.2440     0.6790    23.4280 ca         1 UGP      -0.060000
     13 C14         11.4700    -1.4400    22.3380 ca         1 UGP      -0.064000
     14 O            9.2230     1.2470    21.0730 o          1 UGP      -0.563100
     15 C1           5.3610     0.6510    20.1750 ca         1 UGP      -0.068300
     16 C            4.6680     0.2420    21.4360 c3         1 UGP      -0.051800
     17 N            6.6660     1.4350    17.8220 nb         1 UGP      -0.651000
     18 C3           5.3650     1.6420    17.9890 ca         1 UGP       0.327900
     19 C2           4.6790     1.2620    19.1300 ca         1 UGP      -0.151000
     20 H1           7.0510    -0.9850    21.4650 hn         1 UGP       0.153000
     21 H2           8.3820     0.6570    18.6370 h4         1 UGP       0.038100
     22 H3           8.6740    -0.1320    23.5830 hc         1 UGP       0.067200
     23 H4           8.8540    -1.5740    22.6110 hc         1 UGP       0.067200
     24 H5          13.0630     1.6530    24.0080 ha         1 UGP       0.123000
     25 H6          14.5180    -0.1450    23.1310 ha         1 UGP       0.127000
     26 H7          10.6190     1.4680    23.8270 ha         1 UGP       0.122000
     27 H8          11.0350    -2.3140    21.8720 ha         1 UGP       0.122000
     28 H9           4.6650    -0.8430    21.5570 hc         1 UGP       0.046700
     29 H10          5.1640     0.6610    22.3120 hc         1 UGP       0.046700
     30 H11          3.6320     0.5750    21.4380 hc         1 UGP       0.046700
     31 H12          4.8400     2.1270    17.1740 h4         1 UGP       0.022100
     32 H13          3.6170     1.4550    19.2100 ha         1 UGP       0.123000
@<TRIPOS>BOND
     1     1     3 1   
     2     1     4 1   
     3     1    20 1   
     4     2     3 ar  
     5     2    17 ar  
     6     2    21 1   
     7     3    15 ar  
     8     4     5 1   
     9     4    14 2   
    10     5     6 1   
    11     5    22 1   
    12     5    23 1   
    13     6    12 ar  
    14     6    13 ar  
    15     7    11 ar  
    16     7    12 ar  
    17     7    24 1   
    18     8     9 3   
    19     8    10 1   
    20    10    11 ar  
    21    10    13 ar  
    22    11    25 1   
    23    12    26 1   
    24    13    27 1   
    25    15    16 1   
    26    15    19 ar  
    27    16    28 1   
    28    16    29 1   
    29    16    30 1   
    30    17    18 ar  
    31    18    19 ar  
    32    18    31 1   
    33    19    32 1   
@<TRIPOS>SUBSTRUCTURE
     1 UGP         1 TEMP              0 ****  ****    0 ROOT
