@<TRIPOS>MOLECULE
UGP
   32    33     1     0     0
SMALL
No Charge or Current Charge


@<TRIPOS>ATOM
      1 N1           7.6470     0.8300    21.4890 ns         1 UGP      -0.162000
      2 C4           6.9060     2.2640    19.5770 ca         1 UGP       0.347900
      3 C5           6.8660     1.0530    20.3150 ca         1 UGP      -0.094000
      4 C6           8.6630     1.5690    22.0830 c          1 UGP       0.603100
      5 C7           9.2320     0.9430    23.3630 c3         1 UGP      -0.114100
      6 C8          10.5340     0.2030    23.0670 ca         1 UGP      -0.078300
      7 C10         12.9630     0.2040    22.8470 ca         1 UGP      -0.112000
      8 C13         11.6830    -3.2400    22.0910 cg         1 UGP       0.323000
      9 N2          11.6500    -4.3720    21.8060 n1         1 UGP      -0.452000
     10 C12         11.7120    -1.8470    22.4420 ca         1 UGP      -0.018000
     11 C11         12.9390    -1.1590    22.5050 ca         1 UGP      -0.065000
     12 C9          11.7650     0.8830    23.1260 ca         1 UGP      -0.060000
     13 C14         10.5120    -1.1630    22.7230 ca         1 UGP      -0.064000
     14 O            9.1030     2.6180    21.6280 o          1 UGP      -0.563100
     15 C1           6.0020     0.0270    19.8680 ca         1 UGP      -0.068300
     16 C            5.8910    -1.3070    20.5990 c3         1 UGP      -0.051800
     17 N            6.1640     2.4840    18.4650 nb         1 UGP      -0.651000
     18 C3           5.3470     1.4940    18.0450 ca         1 UGP       0.327900
     19 C2           5.2370     0.2640    18.7120 ca         1 UGP      -0.151000
     20 H1           7.4190    -0.0260    21.9770 hn         1 UGP       0.153000
     21 H2           7.5350     3.0980    19.8750 h4         1 UGP       0.038100
     22 H3           9.4200     1.7420    24.0900 hc         1 UGP       0.067200
     23 H4           8.5070     0.2360    23.7820 hc         1 UGP       0.067200
     24 H5          13.9120     0.7350    22.8940 ha         1 UGP       0.123000
     25 H6          13.8710    -1.6770    22.2900 ha         1 UGP       0.127000
     26 H7          11.7960     1.9400    23.3860 ha         1 UGP       0.122000
     27 H8           9.5640    -1.6950    22.6730 ha         1 UGP       0.122000
     28 H9           6.8630    -1.8140    20.6460 hc         1 UGP       0.046700
     29 H10          5.5320    -1.1670    21.6250 hc         1 UGP       0.046700
     30 H11          5.1920    -1.9880    20.0980 hc         1 UGP       0.046700
     31 H12          4.7610     1.6940    17.1490 h4         1 UGP       0.022100
     32 H13          4.5590    -0.4920    18.3250 ha         1 UGP       0.123000
@<TRIPOS>BOND
     1     1     3 1   
     2     1     4 1   
     3     1    20 1   
     4     2     3 ar  
     5     2    17 ar  
     6     2    21 1   
     7     3    15 ar  
     8     4     5 1   
     9     4    14 2   
    10     5     6 1   
    11     5    22 1   
    12     5    23 1   
    13     6    12 ar  
    14     6    13 ar  
    15     7    11 ar  
    16     7    12 ar  
    17     7    24 1   
    18     8     9 3   
    19     8    10 1   
    20    10    11 ar  
    21    10    13 ar  
    22    11    25 1   
    23    12    26 1   
    24    13    27 1   
    25    15    16 1   
    26    15    19 ar  
    27    16    28 1   
    28    16    29 1   
    29    16    30 1   
    30    17    18 ar  
    31    18    19 ar  
    32    18    31 1   
    33    19    32 1   
@<TRIPOS>SUBSTRUCTURE
     1 UGP         1 TEMP              0 ****  ****    0 ROOT
