@<TRIPOS>MOLECULE
UGQ
   37    39     1     0     0
SMALL
No Charge or Current Charge


@<TRIPOS>ATOM
      1 C10        -24.9410   -20.0890     2.7040 c6         1 UGQ       0.199800
      2 C13        -25.9620   -20.0620    -0.0090 ca         1 UGQ      -0.118300
      3 C15        -26.5330   -20.0880    -1.2970 ca         1 UGQ      -0.099000
      4 C17        -25.5740   -17.9050    -1.7780 ca         1 UGQ      -0.103000
      5 C20        -24.2480   -23.3130    -0.9700 ca         1 UGQ      -0.009500
      6 C21        -24.2580   -23.2890    -2.3760 ca         1 UGQ      -0.134500
      7 C03        -23.6980   -22.2050    -3.0750 ca         1 UGQ      -0.021300
      8 C04        -23.1130   -21.1470    -2.3550 ca         1 UGQ      -0.134500
      9 C05        -23.0970   -21.1650    -0.9510 ca         1 UGQ      -0.009500
     10 C06        -23.6760   -22.2440    -0.2510 ca         1 UGQ      -0.303500
     11 C11        -24.5170   -18.9220     1.7720 c6         1 UGQ      -0.068100
     12 C12        -25.1930   -18.9470     0.3950 ca         1 UGQ      -0.066300
     13 C14        -26.1700   -21.2440     0.9450 c6         1 UGQ       0.244100
     14 C16        -26.3390   -19.0120    -2.1790 ca         1 UGQ      -0.109000
     15 C18        -25.0010   -17.8740    -0.4950 ca         1 UGQ      -0.106000
     16 N09        -25.1080   -21.3670     1.9680 n3         1 UGQ      -0.725500
     17 O08        -23.9080   -23.6110     2.0530 o          1 UGQ      -0.537500
     18 O19        -22.5490   -21.4450     2.0040 o          1 UGQ      -0.537500
     19 S07        -23.6940   -22.2470     1.5560 sy         1 UGQ       1.162600
     20 H1         -24.2250   -20.1880     3.5340 h1         1 UGQ       0.071700
     21 H2         -25.9020   -19.8160     3.1660 h1         1 UGQ       0.071700
     22 H3         -27.1220   -20.9450    -1.6160 ha         1 UGQ       0.116000
     23 H4         -25.4200   -17.0730    -2.4620 ha         1 UGQ       0.115000
     24 H5         -24.6940   -24.1580    -0.4470 ha         1 UGQ       0.134000
     25 H6         -24.7080   -24.1160    -2.9210 ha         1 UGQ       0.116500
     26 H7         -23.8110   -21.1510    -4.9730 hc         1 UGQ       0.048700
     27 H8         -22.7960   -22.6040    -5.0060 hc         1 UGQ       0.048700
     28 H9         -24.5620   -22.7510    -4.9950 hc         1 UGQ       0.048700
     29 H10        -22.6740   -20.3050    -2.8840 ha         1 UGQ       0.116500
     30 H11        -22.6500   -20.3320    -0.4130 ha         1 UGQ       0.134000
     31 H12        -23.4290   -18.9480     1.6300 hc         1 UGQ       0.061700
     32 H13        -24.7280   -17.9690     2.2740 hc         1 UGQ       0.061700
     33 H14        -27.1370   -21.0850     1.4460 h1         1 UGQ       0.080200
     34 H15        -26.2880   -22.1760     0.3730 h1         1 UGQ       0.080200
     35 H16        -26.7780   -19.0380    -3.1730 ha         1 UGQ       0.117000
     36 H17        -24.4010   -17.0180    -0.1950 ha         1 UGQ       0.112000
     37 C02        -23.7190   -22.1760    -4.5950 c3         1 UGQ      -0.057800
@<TRIPOS>BOND
     1     1    11 1   
     2     1    16 1   
     3     1    20 1   
     4     1    21 1   
     5     2     3 ar  
     6     2    12 ar  
     7     2    13 1   
     8     3    14 ar  
     9     3    22 1   
    10     4    14 ar  
    11     4    15 ar  
    12     4    23 1   
    13     5     6 ar  
    14     5    10 ar  
    15     5    24 1   
    16     6     7 ar  
    17     6    25 1   
    18     7     8 ar  
    19     7    37 1   
    20     8     9 ar  
    21     8    29 1   
    22     9    10 ar  
    23     9    30 1   
    24    10    19 1   
    25    11    12 1   
    26    11    31 1   
    27    11    32 1   
    28    12    15 ar  
    29    13    16 1   
    30    13    33 1   
    31    13    34 1   
    32    14    35 1   
    33    15    36 1   
    34    16    19 1   
    35    17    19 2   
    36    18    19 2   
    37    26    37 1   
    38    27    37 1   
    39    28    37 1   
@<TRIPOS>SUBSTRUCTURE
     1 UGQ         1 TEMP              0 ****  ****    0 ROOT
