@<TRIPOS>MOLECULE
UGQ
   37    39     1     0     0
SMALL
abcg2


@<TRIPOS>ATOM
      1 C10        -24.4020   -19.8870     1.9690 c6         1 UGQ       0.199800
      2 C13        -26.6490   -20.3210     0.2740 ca         1 UGQ      -0.118300
      3 C15        -27.8170   -20.5060    -0.4620 ca         1 UGQ      -0.099000
      4 C17        -27.1660   -18.7640    -1.9740 ca         1 UGQ      -0.103000
      5 C20        -24.3530   -22.3570    -1.2700 ca         1 UGQ      -0.009500
      6 C21        -23.9160   -22.0580    -2.5490 ca         1 UGQ      -0.134500
      7 C03        -22.6170   -21.6050    -2.7810 ca         1 UGQ      -0.021300
      8 C04        -21.7560   -21.4750    -1.6930 ca         1 UGQ      -0.134500
      9 C05        -22.1780   -21.7670    -0.4050 ca         1 UGQ      -0.009500
     10 C06        -23.4800   -22.1990    -0.2000 ca         1 UGQ      -0.303500
     11 C11        -24.4440   -19.1420     0.6390 c6         1 UGQ      -0.068100
     12 C12        -25.7320   -19.3460    -0.1130 ca         1 UGQ      -0.066300
     13 C14        -26.4070   -21.1670     1.4960 c6         1 UGQ       0.244100
     14 C16        -28.0810   -19.7340    -1.5810 ca         1 UGQ      -0.109000
     15 C18        -26.0050   -18.5770    -1.2440 ca         1 UGQ      -0.106000
     16 N09        -25.0080   -21.2140     1.8900 n3         1 UGQ      -0.725500
     17 O08        -24.9420   -23.6570     1.4090 o          1 UGQ      -0.537500
     18 O19        -22.9180   -22.4890     2.3330 o          1 UGQ      -0.537500
     19 S07        -24.0680   -22.4950     1.4450 sy         1 UGQ       1.162600
     20 H1         -23.3820   -19.9640     2.3420 h1         1 UGQ       0.071700
     21 H2         -24.9690   -19.3400     2.7260 h1         1 UGQ       0.071700
     22 H3         -28.5220   -21.2710    -0.1560 ha         1 UGQ       0.116000
     23 H4         -27.3600   -18.1550    -2.8480 ha         1 UGQ       0.115000
     24 H5         -25.3650   -22.7120    -1.1230 ha         1 UGQ       0.134000
     25 H6         -24.5960   -22.1840    -3.3820 ha         1 UGQ       0.116500
     26 H7         -22.4390   -20.2130    -4.3960 hc         1 UGQ       0.048700
     27 H8         -21.0870   -21.3300    -4.2700 hc         1 UGQ       0.048700
     28 H9         -22.6380   -21.8790    -4.9150 hc         1 UGQ       0.048700
     29 H10        -20.7380   -21.1420    -1.8510 ha         1 UGQ       0.116500
     30 H11        -21.4910   -21.6550     0.4230 ha         1 UGQ       0.134000
     31 H12        -23.6100   -19.4540     0.0050 hc         1 UGQ       0.061700
     32 H13        -24.2890   -18.0780     0.8310 hc         1 UGQ       0.061700
     33 H14        -26.9590   -20.7560     2.3470 h1         1 UGQ       0.080200
     34 H15        -26.7890   -22.1750     1.3510 h1         1 UGQ       0.080200
     35 H16        -28.9910   -19.8900    -2.1460 ha         1 UGQ       0.117000
     36 H17        -25.2910   -17.8220    -1.5530 ha         1 UGQ       0.112000
     37 C02        -22.1680   -21.2450    -4.1640 c3         1 UGQ      -0.057800
@<TRIPOS>BOND
     1     1    11 1   
     2     1    16 1   
     3     1    20 1   
     4     1    21 1   
     5     2     3 ar  
     6     2    12 ar  
     7     2    13 1   
     8     3    14 ar  
     9     3    22 1   
    10     4    14 ar  
    11     4    15 ar  
    12     4    23 1   
    13     5     6 ar  
    14     5    10 ar  
    15     5    24 1   
    16     6     7 ar  
    17     6    25 1   
    18     7     8 ar  
    19     7    37 1   
    20     8     9 ar  
    21     8    29 1   
    22     9    10 ar  
    23     9    30 1   
    24    10    19 1   
    25    11    12 1   
    26    11    31 1   
    27    11    32 1   
    28    12    15 ar  
    29    13    16 1   
    30    13    33 1   
    31    13    34 1   
    32    14    35 1   
    33    15    36 1   
    34    16    19 1   
    35    17    19 2   
    36    18    19 2   
    37    26    37 1   
    38    27    37 1   
    39    28    37 1   
@<TRIPOS>SUBSTRUCTURE
     1 UGQ         1 TEMP              0 ****  ****    0 ROOT
