@<TRIPOS>MOLECULE
UGR
   63    67     1     0     0
SMALL
abcg2


@<TRIPOS>ATOM
      1 N           19.0850    12.9780    44.5500 n8         1 UGR      -1.014200
      2 CA          20.0680    12.4900    43.5940 c3         1 UGR       0.021500
      3 C           20.0360    10.9390    43.4960 c          1 UGR       0.718000
      4 O           19.0530    10.3610    44.0030 o          1 UGR      -0.725500
      5 CB          21.4660    12.9890    43.9610 c3         1 UGR      -0.042400
      6 OXT         20.9850    10.4040    42.8910 o          1 UGR      -0.725500
      7 C10         22.7940    24.0220    42.6300 ca         1 UGR       0.178900
      8 C12         23.2900    22.1900    43.7520 ca         1 UGR       0.161500
      9 C13         23.4740    22.8970    44.9370 ca         1 UGR      -0.240800
     10 C14         23.8260    21.9400    45.9470 cc         1 UGR       0.001100
     11 C15         24.1060    22.1750    47.3080 cg         1 UGR      -0.077300
     12 C16         24.3450    22.3810    48.4740 ch         1 UGR      -0.150000
     13 C17         24.6450    22.5700    49.8460 ca         1 UGR      -0.008000
     14 C18         25.2810    21.5240    50.5740 ca         1 UGR       0.373900
     15 C20         25.3030    22.7390    52.5100 ca         1 UGR       0.268000
     16 C21         24.6720    23.8430    51.8840 ca         1 UGR      -0.080000
     17 C22         24.3450    23.7310    50.5200 ca         1 UGR      -0.055000
     18 C23         24.3910    25.0030    52.6420 ca         1 UGR      -0.092000
     19 C24         24.7260    25.0580    53.9670 ca         1 UGR      -0.108000
     20 C25         25.3570    23.9590    54.5880 ca         1 UGR      -0.105000
     21 C26         25.6410    22.8240    53.8770 ca         1 UGR      -0.079000
     22 C27         23.8370    20.7180    45.3260 cd         1 UGR      -0.115100
     23 C29         23.3920    19.7960    43.0470 c5         1 UGR       0.272300
     24 C30         24.6630    18.9560    42.8690 c5         1 UGR       0.084300
     25 C32         24.0690    17.6370    42.3830 c5         1 UGR       0.155300
     26 C34         22.8060    17.5470    43.2330 c5         1 UGR       0.167300
     27 C36         23.0020    16.8210    44.5580 c3         1 UGR       0.029600
     28 C38         21.5350    14.5080    43.9900 c3         1 UGR       0.085600
     29 C8          23.2790    24.2900    44.8560 ca         1 UGR       0.438900
     30 N11         22.9490    22.7130    42.5760 nb         1 UGR      -0.222000
     31 N19         25.5940    21.6000    51.8330 nb         1 UGR      -0.658000
     32 N28         23.5210    20.8660    44.0040 na         1 UGR      -0.187400
     33 N9          22.9370    24.8250    43.6800 nb         1 UGR      -0.305000
     34 O31         25.5740    19.4750    41.9510 oh         1 UGR      -0.706000
     35 O33         23.6830    17.7110    41.0340 oh         1 UGR      -0.706000
     36 O35         22.4100    18.8990    43.4900 os         1 UGR      -0.453000
     37 S37         23.2360    15.0370    44.3580 ss         1 UGR      -0.462000
     38 H1          18.6780    13.8470    44.2310 hn         1 UGR       0.387000
     39 H2          18.3370    12.2970    44.5930 hn         1 UGR       0.387000
     40 H4          19.8570    12.8520    42.5730 h1         1 UGR       0.000700
     41 H5          21.7460    12.5930    44.9420 hc         1 UGR       0.060700
     42 H6          22.1850    12.6040    43.2370 hc         1 UGR       0.060700
     43 H8          22.5130    24.5110    41.7030 h5         1 UGR       0.044100
     44 H9          25.5240    20.6020    50.0570 h4         1 UGR       0.029100
     45 H10         23.8600    24.5560    50.0120 ha         1 UGR       0.119000
     46 H11         23.9080    25.8430    52.1580 ha         1 UGR       0.113000
     47 H12         24.5090    25.9460    54.5450 ha         1 UGR       0.113000
     48 H13         25.6170    24.0190    55.6370 ha         1 UGR       0.115000
     49 H14         26.1240    21.9760    54.3460 ha         1 UGR       0.132000
     50 H15         24.0430    19.7500    45.7550 h4         1 UGR       0.231000
     51 H16         23.1140    20.2650    42.0990 h2         1 UGR       0.118700
     52 H17         25.1290    18.7880    43.8490 h1         1 UGR       0.048700
     53 H18         24.7420    16.7910    42.5670 h1         1 UGR       0.084700
     54 H19         22.0070    17.0600    42.6670 h1         1 UGR       0.105700
     55 H20         22.1410    16.9920    45.2070 h1         1 UGR       0.070200
     56 H21         23.8830    17.1920    45.0880 h1         1 UGR       0.070200
     57 H22         21.2230    14.9180    43.0260 h1         1 UGR       0.052200
     58 H23         20.8770    14.9140    44.7600 h1         1 UGR       0.052200
     59 H24         23.2880    26.0930    45.7960 hn         1 UGR       0.501000
     60 H25         23.6930    24.7590    46.8120 hn         1 UGR       0.501000
     61 H26         26.0350    20.2210    42.3470 ho         1 UGR       0.519000
     62 H27         24.4580    17.9290    40.5050 ho         1 UGR       0.522000
     63 N7          23.4140    25.1010    45.9090 nv         1 UGR      -1.077900
@<TRIPOS>BOND
     1     1     2 1   
     2     1    38 1   
     3     1    39 1   
     4     2     3 1   
     5     2     5 1   
     6     2    40 1   
     7     3     4 1   
     8     3     6 1   
     9     5    28 1   
    10     5    41 1   
    11     5    42 1   
    12     7    30 ar  
    13     7    33 ar  
    14     7    43 1   
    15     8     9 ar  
    16     8    30 ar  
    17     8    32 1   
    18     9    10 1   
    19     9    29 ar  
    20    10    11 1   
    21    10    22 2   
    22    11    12 3   
    23    12    13 1   
    24    13    14 ar  
    25    13    17 ar  
    26    14    31 ar  
    27    14    44 1   
    28    15    16 ar  
    29    15    21 ar  
    30    15    31 ar  
    31    16    17 ar  
    32    16    18 ar  
    33    17    45 1   
    34    18    19 ar  
    35    18    46 1   
    36    19    20 ar  
    37    19    47 1   
    38    20    21 ar  
    39    20    48 1   
    40    21    49 1   
    41    22    32 1   
    42    22    50 1   
    43    23    24 1   
    44    23    32 1   
    45    23    36 1   
    46    23    51 1   
    47    24    25 1   
    48    24    34 1   
    49    24    52 1   
    50    25    26 1   
    51    25    35 1   
    52    25    53 1   
    53    26    27 1   
    54    26    36 1   
    55    26    54 1   
    56    27    37 1   
    57    27    55 1   
    58    27    56 1   
    59    28    37 1   
    60    28    57 1   
    61    28    58 1   
    62    29    33 ar  
    63    29    63 1   
    64    34    61 1   
    65    35    62 1   
    66    59    63 1   
    67    60    63 1   
@<TRIPOS>SUBSTRUCTURE
     1 UGR         1 TEMP              0 ****  ****    0 ROOT
