@<TRIPOS>MOLECULE
UGR
   63    67     1     0     0
SMALL
No Charge or Current Charge


@<TRIPOS>ATOM
      1 N           20.9060    12.5740    45.9530 n8         1 UGR      -1.014200
      2 CA          21.3820    12.4150    44.5290 c3         1 UGR       0.021500
      3 C           21.7660    10.9360    44.0830 c          1 UGR       0.718000
      4 O           20.8640    10.2040    43.6960 o          1 UGR      -0.725500
      5 CB          22.5190    13.4270    44.2080 c3         1 UGR      -0.042400
      6 OXT         22.9370    10.5760    44.1390 o          1 UGR      -0.725500
      7 C10         25.3440    23.2950    42.6040 ca         1 UGR       0.178900
      8 C12         23.7940    21.9620    43.6500 ca         1 UGR       0.161500
      9 C13         24.2910    22.3830    44.8600 ca         1 UGR      -0.240800
     10 C14         23.5440    21.7460    45.9050 cc         1 UGR       0.001100
     11 C15         23.6950    21.8700    47.3130 cg         1 UGR      -0.077300
     12 C16         23.8870    21.9940    48.5110 ch         1 UGR      -0.150000
     13 C17         24.1180    22.1560    49.9090 ca         1 UGR      -0.008000
     14 C18         24.3810    21.0450    50.7350 ca         1 UGR       0.373900
     15 C20         24.5800    22.3740    52.6390 ca         1 UGR       0.268000
     16 C21         24.3220    23.5440    51.8780 ca         1 UGR      -0.080000
     17 C22         24.0880    23.4320    50.4950 ca         1 UGR      -0.055000
     18 C23         24.2990    24.8100    52.4960 ca         1 UGR      -0.092000
     19 C24         24.5320    24.9220    53.8760 ca         1 UGR      -0.108000
     20 C25         24.7880    23.7720    54.6390 ca         1 UGR      -0.105000
     21 C26         24.8110    22.5090    54.0210 ca         1 UGR      -0.079000
     22 C27         22.6000    20.9570    45.2710 cd         1 UGR      -0.115100
     23 C29         21.9410    20.3860    42.8390 c5         1 UGR       0.272300
     24 C30         22.7500    19.6470    41.7010 c5         1 UGR       0.084300
     25 C32         22.0750    18.2420    41.6430 c5         1 UGR       0.155300
     26 C34         21.6200    18.0710    43.1240 c5         1 UGR       0.167300
     27 C36         22.7480    17.6790    44.1220 c3         1 UGR       0.029600
     28 C38         22.0930    14.9080    44.2910 c3         1 UGR       0.085600
     29 C8          25.3530    23.2950    44.8890 ca         1 UGR       0.438900
     30 N11         24.3170    22.4190    42.4930 nb         1 UGR      -0.222000
     31 N19         24.6070    21.1450    52.0700 nb         1 UGR      -0.658000
     32 N28         22.7510    21.0640    43.8630 na         1 UGR      -0.187400
     33 N9          25.8920    23.7570    43.7520 nb         1 UGR      -0.305000
     34 O31         22.6760    20.2960    40.4120 oh         1 UGR      -0.706000
     35 O33         20.9830    18.2900    40.7170 oh         1 UGR      -0.706000
     36 O35         21.0960    19.3780    43.4530 os         1 UGR      -0.453000
     37 S37         23.4900    16.0120    43.7820 ss         1 UGR      -0.462000
     38 H1          20.5140    13.5140    46.0830 hn         1 UGR       0.387000
     39 H2          20.1010    11.9530    46.1070 hn         1 UGR       0.387000
     40 H4          20.5260    12.6970    43.9000 h1         1 UGR       0.000700
     41 H5          23.3680    13.2550    44.8810 hc         1 UGR       0.060700
     42 H6          22.8780    13.2340    43.1900 hc         1 UGR       0.060700
     43 H8          25.7720    23.6650    41.6740 h5         1 UGR       0.044100
     44 H9          24.4120    20.0380    50.3180 h4         1 UGR       0.029100
     45 H10         23.8880    24.3140    49.8900 ha         1 UGR       0.119000
     46 H11         24.1010    25.7050    51.9100 ha         1 UGR       0.113000
     47 H12         24.5150    25.9000    54.3530 ha         1 UGR       0.113000
     48 H13         24.9690    23.8570    55.7080 ha         1 UGR       0.115000
     49 H14         25.0100    21.6230    54.6180 ha         1 UGR       0.132000
     50 H15         21.8380    20.3270    45.7190 h4         1 UGR       0.231000
     51 H16         21.3060    21.1680    42.4040 h2         1 UGR       0.118700
     52 H17         23.8010    19.5320    42.0030 h1         1 UGR       0.048700
     53 H18         22.7960    17.4650    41.3480 h1         1 UGR       0.084700
     54 H19         20.8110    17.3320    43.2050 h1         1 UGR       0.105700
     55 H20         22.3400    17.6820    45.1400 h1         1 UGR       0.070200
     56 H21         23.5550    18.4220    44.0860 h1         1 UGR       0.070200
     57 H22         21.2350    15.0810    43.6280 h1         1 UGR       0.052200
     58 H23         21.7980    15.1580    45.3180 h1         1 UGR       0.052200
     59 H24         26.8150    24.2120    45.9810 hn         1 UGR       0.501000
     60 H25         25.6660    23.2970    46.9040 hn         1 UGR       0.501000
     61 H26         23.2980    21.0640    40.4320 ho         1 UGR       0.519000
     62 H27         21.2250    19.0790    40.1640 ho         1 UGR       0.522000
     63 N7          25.9030    23.7670    46.0340 nv         1 UGR      -1.077900
@<TRIPOS>BOND
     1     1     2 1   
     2     1    38 1   
     3     1    39 1   
     4     2     3 1   
     5     2     5 1   
     6     2    40 1   
     7     3     4 1   
     8     3     6 1   
     9     5    28 1   
    10     5    41 1   
    11     5    42 1   
    12     7    30 ar  
    13     7    33 ar  
    14     7    43 1   
    15     8     9 ar  
    16     8    30 ar  
    17     8    32 1   
    18     9    10 1   
    19     9    29 ar  
    20    10    11 1   
    21    10    22 2   
    22    11    12 3   
    23    12    13 1   
    24    13    14 ar  
    25    13    17 ar  
    26    14    31 ar  
    27    14    44 1   
    28    15    16 ar  
    29    15    21 ar  
    30    15    31 ar  
    31    16    17 ar  
    32    16    18 ar  
    33    17    45 1   
    34    18    19 ar  
    35    18    46 1   
    36    19    20 ar  
    37    19    47 1   
    38    20    21 ar  
    39    20    48 1   
    40    21    49 1   
    41    22    32 1   
    42    22    50 1   
    43    23    24 1   
    44    23    32 1   
    45    23    36 1   
    46    23    51 1   
    47    24    25 1   
    48    24    34 1   
    49    24    52 1   
    50    25    26 1   
    51    25    35 1   
    52    25    53 1   
    53    26    27 1   
    54    26    36 1   
    55    26    54 1   
    56    27    37 1   
    57    27    55 1   
    58    27    56 1   
    59    28    37 1   
    60    28    57 1   
    61    28    58 1   
    62    29    33 ar  
    63    29    63 1   
    64    34    61 1   
    65    35    62 1   
    66    59    63 1   
    67    60    63 1   
@<TRIPOS>SUBSTRUCTURE
     1 UGR         1 TEMP              0 ****  ****    0 ROOT
