@<TRIPOS>MOLECULE
UGS
   38    40     1     0     0
SMALL
No Charge or Current Charge


@<TRIPOS>ATOM
      1 N1          11.1430     3.3970    22.0730 ns         1 UGS      -0.326900
      2 C4          10.5390     2.1370    22.1250 ca         1 UGS       0.505900
      3 C5          11.8150     4.1190    23.0320 c          1 UGS       0.609100
      4 C6          12.3000     5.4960    22.5660 c3         1 UGS      -0.112100
      5 C7          11.3770     6.5940    23.0830 ca         1 UGS      -0.069300
      6 C8          10.2650     7.0030    22.3210 ca         1 UGS      -0.092000
      7 C10          9.6550     8.6160    24.0440 ca         1 UGS      -0.031000
      8 C13         10.1580     9.8200    26.5390 ca         1 UGS      -0.108000
      9 C15         10.7670     8.2090    24.8130 ca         1 UGS      -0.035000
     10 C17         10.2990     1.3870    23.2850 ca         1 UGS      -0.221000
     11 O1          12.0160     3.7140    24.1690 o          1 UGS      -0.557100
     12 N           10.1950     1.7230    20.8930 nb         1 UGS      -0.759000
     13 C3           9.5960     0.5190    20.7780 ca         1 UGS       0.402900
     14 C2           9.3210    -0.3020    21.8790 ca         1 UGS      -0.288000
     15 C1           9.6790     0.1420    23.1620 ca         1 UGS       0.199100
     16 O            9.4440    -0.5930    24.3040 os         1 UGS      -0.329100
     17 C            8.8090    -1.8830    24.2640 c3         1 UGS       0.147900
     18 C16         11.6230     7.2000    24.3310 ca         1 UGS      -0.079000
     19 C9           9.4080     8.0100    22.7990 ca         1 UGS      -0.095000
     20 C14         11.0150     8.8130    26.0610 ca         1 UGS      -0.096000
     21 C12          9.0510    10.2250    25.7730 ca         1 UGS      -0.106000
     22 C11          8.8000     9.6240    24.5270 ca         1 UGS      -0.099000
     23 H1          11.0710     3.8410    21.1690 hn         1 UGS       0.165000
     24 H2          13.3150     5.6580    22.9490 hc         1 UGS       0.068200
     25 H3          12.3190     5.5310    21.4700 hc         1 UGS       0.068200
     26 H4          10.0620     6.5410    21.3570 ha         1 UGS       0.113000
     27 H5          10.3510    10.2860    27.5030 ha         1 UGS       0.112000
     28 H6          10.5730     1.7510    24.2670 ha         1 UGS       0.170000
     29 H7           9.3280     0.2030    19.7700 h4         1 UGS       0.016100
     30 H8           8.8370    -1.2580    21.7120 ha         1 UGS       0.128000
     31 H9           8.7180    -2.2940    25.2770 h1         1 UGS       0.044700
     32 H10          7.8010    -1.8090    23.8360 h1         1 UGS       0.044700
     33 H11          9.3970    -2.5880    23.6630 h1         1 UGS       0.044700
     34 H12         12.4770     6.8850    24.9260 ha         1 UGS       0.111000
     35 H13          8.5540     8.3160    22.2000 ha         1 UGS       0.115000
     36 H14         11.8690     8.5050    26.6600 ha         1 UGS       0.112000
     37 H15          8.3890    11.0040    26.1440 ha         1 UGS       0.113000
     38 H16          7.9410     9.9430    23.9400 ha         1 UGS       0.113000
@<TRIPOS>BOND
     1     1     2 1   
     2     1     3 1   
     3     1    23 1   
     4     2    10 ar  
     5     2    12 ar  
     6     3     4 1   
     7     3    11 2   
     8     4     5 1   
     9     4    24 1   
    10     4    25 1   
    11     5     6 ar  
    12     5    18 ar  
    13     6    19 ar  
    14     6    26 1   
    15     7     9 ar  
    16     7    19 ar  
    17     7    22 ar  
    18     8    20 ar  
    19     8    21 ar  
    20     8    27 1   
    21     9    18 ar  
    22     9    20 ar  
    23    10    15 ar  
    24    10    28 1   
    25    12    13 ar  
    26    13    14 ar  
    27    13    29 1   
    28    14    15 ar  
    29    14    30 1   
    30    15    16 1   
    31    16    17 1   
    32    17    31 1   
    33    17    32 1   
    34    17    33 1   
    35    18    34 1   
    36    19    35 1   
    37    20    36 1   
    38    21    22 ar  
    39    21    37 1   
    40    22    38 1   
@<TRIPOS>SUBSTRUCTURE
     1 UGS         1 TEMP              0 ****  ****    0 ROOT
