@<TRIPOS>MOLECULE
UGS
   38    40     1     0     0
SMALL
bcc


@<TRIPOS>ATOM
      1 N1          10.9870     3.2050    21.9090 ns         1 UGS      -0.560400
      2 C4          10.6570     1.8540    21.9770 ca         1 UGS       0.571200
      3 C5          10.7380     4.2090    22.7920 c          1 UGS       0.676100
      4 C6          11.3310     5.5400    22.3610 c3         1 UGS      -0.112100
      5 C7          10.7440     6.6950    23.1110 ca         1 UGS      -0.069300
      6 C8           9.4210     7.1120    22.8290 ca         1 UGS      -0.110000
      7 C10          9.5840     8.8630    24.4890 ca         1 UGS      -0.031000
      8 C13         11.0830    10.2050    26.4360 ca         1 UGS      -0.126000
      9 C15         10.9100     8.4540    24.7770 ca         1 UGS      -0.035000
     10 C17          9.9460     1.2770    23.0190 ca         1 UGS      -0.304300
     11 O1          10.1230     4.0670    23.8300 o          1 UGS      -0.557100
     12 N           11.0980     1.1680    20.9230 nb         1 UGS      -0.759000
     13 C3          10.8360    -0.1280    20.8820 ca         1 UGS       0.468200
     14 C2          10.1390    -0.8210    21.8560 ca         1 UGS      -0.371300
     15 C1           9.6840    -0.0920    22.9540 ca         1 UGS       0.199100
     16 O            9.0020    -0.6090    23.9760 os         1 UGS      -0.305900
     17 C            8.7000    -1.9950    23.9620 c3         1 UGS       0.124700
     18 C16         11.4620     7.3600    24.0690 ca         1 UGS      -0.097000
     19 C9           8.8580     8.1620    23.4960 ca         1 UGS      -0.113000
     20 C14         11.6430     9.1520    25.7660 ca         1 UGS      -0.114000
     21 C12          9.7630    10.6120    26.1490 ca         1 UGS      -0.124000
     22 C11          9.0310     9.9550    25.1970 ca         1 UGS      -0.117000
     23 H1          11.5040     3.4420    21.0740 hn         1 UGS       0.331500
     24 H2          12.4110     5.4870    22.5250 hc         1 UGS       0.068200
     25 H3          11.1920     5.6680    21.2840 hc         1 UGS       0.068200
     26 H4           8.8510     6.5920    22.0680 ha         1 UGS       0.131000
     27 H5          11.6530    10.7310    27.1910 ha         1 UGS       0.130000
     28 H6           9.5940     1.8530    23.8600 ha         1 UGS       0.188000
     29 H7          11.2060    -0.6620    20.0130 h4         1 UGS       0.016100
     30 H8           9.9690    -1.8810    21.7410 ha         1 UGS       0.146000
     31 H9           8.1480    -2.1960    24.8770 h1         1 UGS       0.044700
     32 H10          8.0770    -2.2640    23.1060 h1         1 UGS       0.044700
     33 H11          9.6050    -2.6060    23.9520 h1         1 UGS       0.044700
     34 H12         12.4780     7.0540    24.2940 ha         1 UGS       0.129000
     35 H13          7.8440     8.4710    23.2690 ha         1 UGS       0.133000
     36 H14         12.6570     8.8400    25.9860 ha         1 UGS       0.130000
     37 H15          9.3310    11.4470    26.6860 ha         1 UGS       0.131000
     38 H16          8.0170    10.2660    24.9750 ha         1 UGS       0.131000
@<TRIPOS>BOND
     1     1     2 1   
     2     1     3 1   
     3     1    23 1   
     4     2    10 ar  
     5     2    12 ar  
     6     3     4 1   
     7     3    11 2   
     8     4     5 1   
     9     4    24 1   
    10     4    25 1   
    11     5     6 ar  
    12     5    18 ar  
    13     6    19 ar  
    14     6    26 1   
    15     7     9 ar  
    16     7    19 ar  
    17     7    22 ar  
    18     8    20 ar  
    19     8    21 ar  
    20     8    27 1   
    21     9    18 ar  
    22     9    20 ar  
    23    10    15 ar  
    24    10    28 1   
    25    12    13 ar  
    26    13    14 ar  
    27    13    29 1   
    28    14    15 ar  
    29    14    30 1   
    30    15    16 1   
    31    16    17 1   
    32    17    31 1   
    33    17    32 1   
    34    17    33 1   
    35    18    34 1   
    36    19    35 1   
    37    20    36 1   
    38    21    22 ar  
    39    21    37 1   
    40    22    38 1   
@<TRIPOS>SUBSTRUCTURE
     1 UGS         1 TEMP              0 ****  ****    0 ROOT
