@<TRIPOS>MOLECULE
UGU
   58    58     1     0     0
SMALL
No Charge or Current Charge


@<TRIPOS>ATOM
      1 C2         117.4800    97.4670    77.8420 c3         1 UGU      -0.199400
      2 C3         116.5270    98.4700    78.5370 c3         1 UGU      -0.054400
      3 C4         115.4660    99.0610    77.5850 c3         1 UGU      -0.059200
      4 C5         114.5790   100.0810    78.2730 c2         1 UGU      -0.184200
      5 C6         113.4380    99.8440    78.9450 c2         1 UGU      -0.256200
      6 C7         112.7780    98.4980    79.1990 c3         1 UGU      -0.018200
      7 C8         112.4140    98.2280    80.6870 c5         1 UGU      -0.044700
      8 C9         111.5030    96.9740    80.9240 c5         1 UGU       0.165300
      9 O3         111.8600    95.8640    80.0990 oh         1 UGU      -0.652000
     10 C12        113.6040    97.9020    81.6410 c5         1 UGU      -0.028500
     11 C11        112.8220    97.5820    82.9460 c5         1 UGU       0.171300
     12 O4         113.6380    96.9650    83.9400 oh         1 UGU      -0.645000
     13 C10        111.7090    96.6200    82.4370 c5         1 UGU      -0.147400
     14 C13        114.5550    99.0920    81.8390 c2         1 UGU      -0.166200
     15 C14        114.1210   100.2940    82.2710 c2         1 UGU      -0.266200
     16 C15        114.9840   101.5150    82.4900 c3         1 UGU       0.209500
     17 O5         116.0410   101.1540    83.3740 oh         1 UGU      -0.662000
     18 C16        115.5580   102.0690    81.1640 c3         1 UGU      -0.073400
     19 C17        116.3900   103.3740    81.2900 c3         1 UGU      -0.071400
     20 C18        115.6400   104.5970    81.8750 c3         1 UGU      -0.071400
     21 C19        114.4120   105.0520    81.0520 c3         1 UGU      -0.083400
     22 C20        113.7510   106.3260    81.6130 c3         1 UGU      -0.086100
     23 O1         119.5570    97.5440    78.9910 o          1 UGU      -0.743000
     24 C1         118.5120    96.9270    78.8490 c          1 UGU       0.706000
     25 O2         118.2260    95.9280    79.4900 o          1 UGU      -0.743000
     26 H1         117.9810    98.0310    77.0460 hc         1 UGU       0.018700
     27 H2         116.8430    96.6530    77.4730 hc         1 UGU       0.018700
     28 H3         116.0190    97.9660    79.3680 hc         1 UGU       0.039200
     29 H4         117.1160    99.2880    78.9710 hc         1 UGU       0.039200
     30 H5         115.9680    99.5330    76.7310 hc         1 UGU       0.037700
     31 H6         114.8650    98.2460    77.1650 hc         1 UGU       0.037700
     32 H7         114.9380   101.1070    78.1720 ha         1 UGU       0.159000
     33 H8         112.8960   100.6840    79.3820 ha         1 UGU       0.148000
     34 H9         111.8580    98.4510    78.6020 hc         1 UGU       0.052700
     35 H10        113.4080    97.6810    78.8300 hc         1 UGU       0.052700
     36 H11        111.8720    99.1170    81.0290 hc         1 UGU       0.042700
     37 H12        110.4540    97.2390    80.7320 h1         1 UGU       0.032700
     38 H13        111.2450    95.1340    80.3270 ho         1 UGU       0.431000
     39 H14        114.1640    97.0250    81.2910 hc         1 UGU       0.096700
     40 H15        112.3600    98.4920    83.3550 h1         1 UGU       0.027700
     41 H16        113.0530    96.7750    84.7050 ho         1 UGU       0.428000
     42 H17        110.7840    96.7570    83.0080 hc         1 UGU       0.045700
     43 H18        111.9980    95.5700    82.5640 hc         1 UGU       0.045700
     44 H19        115.6170    98.9560    81.6270 ha         1 UGU       0.201000
     45 H21        113.0680   100.4700    82.4900 ha         1 UGU       0.146000
     46 H23        114.3610   102.2900    82.9560 h1         1 UGU       0.021700
     47 H24        115.6520   100.5060    83.9990 ho         1 UGU       0.420000
     48 H25        116.1870   101.2990    80.7020 hc         1 UGU       0.071200
     49 H26        114.7300   102.2370    80.4680 hc         1 UGU       0.071200
     50 H27        117.2720   103.1750    81.9100 hc         1 UGU       0.056700
     51 H28        116.7730   103.6390    80.2960 hc         1 UGU       0.056700
     52 H29        116.3480   105.4330    81.9370 hc         1 UGU       0.023200
     53 H30        115.3300   104.3820    82.9050 hc         1 UGU       0.023200
     54 H31        113.6620   104.2520    81.0330 hc         1 UGU       0.047700
     55 H32        114.7150   105.2340    80.0140 hc         1 UGU       0.047700
     56 H33        112.8860   106.6080    81.0010 hc         1 UGU       0.022700
     57 H34        113.4070   106.1640    82.6410 hc         1 UGU       0.022700
     58 H35        114.4600   107.1630    81.6110 hc         1 UGU       0.022700
@<TRIPOS>BOND
     1     1     2 1   
     2     1    24 1   
     3     1    26 1   
     4     1    27 1   
     5     2     3 1   
     6     2    28 1   
     7     2    29 1   
     8     3     4 1   
     9     3    30 1   
    10     3    31 1   
    11     4     5 2   
    12     4    32 1   
    13     5     6 1   
    14     5    33 1   
    15     6     7 1   
    16     6    34 1   
    17     6    35 1   
    18     7     8 1   
    19     7    10 1   
    20     7    36 1   
    21     8     9 1   
    22     8    13 1   
    23     8    37 1   
    24     9    38 1   
    25    10    11 1   
    26    10    14 1   
    27    10    39 1   
    28    11    12 1   
    29    11    13 1   
    30    11    40 1   
    31    12    41 1   
    32    13    42 1   
    33    13    43 1   
    34    14    15 2   
    35    14    44 1   
    36    15    16 1   
    37    15    45 1   
    38    16    17 1   
    39    16    18 1   
    40    16    46 1   
    41    17    47 1   
    42    18    19 1   
    43    18    48 1   
    44    18    49 1   
    45    19    20 1   
    46    19    50 1   
    47    19    51 1   
    48    20    21 1   
    49    20    52 1   
    50    20    53 1   
    51    21    22 1   
    52    21    54 1   
    53    21    55 1   
    54    22    56 1   
    55    22    57 1   
    56    22    58 1   
    57    23    24 1   
    58    24    25 1   
@<TRIPOS>SUBSTRUCTURE
     1 UGU         1 TEMP              0 ****  ****    0 ROOT
