@<TRIPOS>MOLECULE
UGU
   58    58     1     0     0
SMALL
abcg2


@<TRIPOS>ATOM
      1 C2         117.5010    99.2680    77.7370 c3         1 UGU      -0.199400
      2 C3         116.3110    99.8920    78.4590 c3         1 UGU      -0.054400
      3 C4         114.9650    99.5820    77.7920 c3         1 UGU      -0.059200
      4 C5         113.8350   100.3340    78.4300 c2         1 UGU      -0.184200
      5 C6         112.7780    99.8410    79.0740 c2         1 UGU      -0.256200
      6 C7         112.4150    98.4000    79.2960 c3         1 UGU      -0.018200
      7 C8         112.0250    98.0910    80.7440 c5         1 UGU      -0.044700
      8 C9         111.2030    96.8140    80.9340 c5         1 UGU       0.165300
      9 O3         111.8570    95.7490    80.2250 oh         1 UGU      -0.652000
     10 C12        113.1820    97.8900    81.7530 c5         1 UGU      -0.028500
     11 C11        112.4750    97.3300    82.9890 c5         1 UGU       0.171300
     12 O4         113.3880    96.4900    83.7050 oh         1 UGU      -0.645000
     13 C10        111.2250    96.5890    82.4520 c5         1 UGU      -0.147400
     14 C13        114.0670    99.0850    81.9360 c2         1 UGU      -0.166200
     15 C14        114.1280    99.8980    82.9850 c2         1 UGU      -0.266200
     16 C15        114.9930   101.1260    83.1070 c3         1 UGU       0.209500
     17 O5         115.6790   101.1180    84.3800 oh         1 UGU      -0.662000
     18 C16        116.0500   101.2730    82.0250 c3         1 UGU      -0.073400
     19 C17        116.8340   102.5880    82.0660 c3         1 UGU      -0.071400
     20 C18        116.0190   103.8350    81.7130 c3         1 UGU      -0.071400
     21 C19        115.4740   103.8410    80.2840 c3         1 UGU      -0.083400
     22 C20        114.7350   105.1310    79.9360 c3         1 UGU      -0.086100
     23 O1         119.8310    99.8170    77.6620 o          1 UGU      -0.743000
     24 C1         118.8570    99.5430    78.4130 c          1 UGU       0.706000
     25 O2         118.9060    99.4570    79.6690 o          1 UGU      -0.743000
     26 H1         117.5450    99.6160    76.7020 hc         1 UGU       0.018700
     27 H2         117.3710    98.1790    77.7000 hc         1 UGU       0.018700
     28 H3         116.2940    99.5350    79.4890 hc         1 UGU       0.039200
     29 H4         116.4450   100.9770    78.5100 hc         1 UGU       0.039200
     30 H5         115.0250    99.8670    76.7340 hc         1 UGU       0.037700
     31 H6         114.7870    98.5050    77.8140 hc         1 UGU       0.037700
     32 H7         113.9230   101.4160    78.3740 ha         1 UGU       0.159000
     33 H8         112.0700   100.5520    79.4950 ha         1 UGU       0.148000
     34 H9         111.5490    98.1630    78.6670 hc         1 UGU       0.052700
     35 H10        113.2180    97.7350    78.9770 hc         1 UGU       0.052700
     36 H11        111.4020    98.9140    81.1150 hc         1 UGU       0.042700
     37 H12        110.1870    96.9320    80.5460 h1         1 UGU       0.032700
     38 H13        111.3950    94.9270    80.4320 ho         1 UGU       0.431000
     39 H14        113.8030    97.0790    81.3550 hc         1 UGU       0.096700
     40 H15        112.1570    98.1440    83.6450 h1         1 UGU       0.027700
     41 H16        112.9860    96.2550    84.5500 ho         1 UGU       0.428000
     42 H17        110.3170    96.9880    82.9080 hc         1 UGU       0.045700
     43 H18        111.2750    95.5260    82.6930 hc         1 UGU       0.045700
     44 H19        114.6980    99.2920    81.0820 ha         1 UGU       0.201000
     45 H21        113.4980    99.7180    83.8530 ha         1 UGU       0.146000
     46 H23        114.3320   102.0030    83.0850 h1         1 UGU       0.021700
     47 H24        115.0130   101.1070    85.0790 ho         1 UGU       0.420000
     48 H25        116.7430   100.4310    82.1080 hc         1 UGU       0.071200
     49 H26        115.5640   101.1760    81.0550 hc         1 UGU       0.071200
     50 H27        117.2770   102.7130    83.0570 hc         1 UGU       0.056700
     51 H28        117.6680   102.5060    81.3620 hc         1 UGU       0.056700
     52 H29        116.6540   104.7170    81.8490 hc         1 UGU       0.023200
     53 H30        115.1860   103.9520    82.4150 hc         1 UGU       0.023200
     54 H31        114.8000   102.9920    80.1390 hc         1 UGU       0.047700
     55 H32        116.3050   103.6920    79.5860 hc         1 UGU       0.047700
     56 H33        114.3530   105.1080    78.9130 hc         1 UGU       0.022700
     57 H34        113.8860   105.2870    80.6070 hc         1 UGU       0.022700
     58 H35        115.3940   105.9980    80.0280 hc         1 UGU       0.022700
@<TRIPOS>BOND
     1     1     2 1   
     2     1    24 1   
     3     1    26 1   
     4     1    27 1   
     5     2     3 1   
     6     2    28 1   
     7     2    29 1   
     8     3     4 1   
     9     3    30 1   
    10     3    31 1   
    11     4     5 2   
    12     4    32 1   
    13     5     6 1   
    14     5    33 1   
    15     6     7 1   
    16     6    34 1   
    17     6    35 1   
    18     7     8 1   
    19     7    10 1   
    20     7    36 1   
    21     8     9 1   
    22     8    13 1   
    23     8    37 1   
    24     9    38 1   
    25    10    11 1   
    26    10    14 1   
    27    10    39 1   
    28    11    12 1   
    29    11    13 1   
    30    11    40 1   
    31    12    41 1   
    32    13    42 1   
    33    13    43 1   
    34    14    15 2   
    35    14    44 1   
    36    15    16 1   
    37    15    45 1   
    38    16    17 1   
    39    16    18 1   
    40    16    46 1   
    41    17    47 1   
    42    18    19 1   
    43    18    48 1   
    44    18    49 1   
    45    19    20 1   
    46    19    50 1   
    47    19    51 1   
    48    20    21 1   
    49    20    52 1   
    50    20    53 1   
    51    21    22 1   
    52    21    54 1   
    53    21    55 1   
    54    22    56 1   
    55    22    57 1   
    56    22    58 1   
    57    23    24 1   
    58    24    25 1   
@<TRIPOS>SUBSTRUCTURE
     1 UGU         1 TEMP              0 ****  ****    0 ROOT
