@<TRIPOS>MOLECULE
UGV
   25    26     1     0     0
SMALL
No Charge or Current Charge


@<TRIPOS>ATOM
      1 N1           6.5670     1.0260    17.4370 nb         1 UGV      -0.646000
      2 C4           9.1320    -1.6640    22.1430 c3         1 UGV      -0.085100
      3 C5           8.7400    -1.0560    20.7860 c          1 UGV       0.607100
      4 C6           6.7680     0.2070    19.7290 ca         1 UGV      -0.076000
      5 C7           5.4920     0.7180    20.0340 ca         1 UGV      -0.134000
      6 C8           4.7730     1.3800    19.0240 ca         1 UGV      -0.135000
      7 C10          7.2630     0.3870    18.4110 ca         1 UGV       0.324900
      8 O            9.4980    -1.0910    19.8240 o          1 UGV      -0.573100
      9 C3          10.0890    -0.8060    22.9390 cc         1 UGV      -0.227300
     10 C2           9.8040    -0.0200    24.0310 cd         1 UGV      -0.125000
     11 C1          10.9340     0.6730    24.5460 cd         1 UGV      -0.126000
     12 S           11.8050    -0.7000    22.5150 ss         1 UGV       0.325000
     13 C           12.0840     0.4170    23.8470 cc         1 UGV      -0.044000
     14 Cl          13.6480     1.0880    24.1920 cl         1 UGV      -0.146000
     15 N            7.4840    -0.4610    20.7630 ns         1 UGV      -0.137000
     16 C9           5.3430     1.5110    17.7470 ca         1 UGV       0.312900
     17 H1           8.2270    -1.8180    22.7430 hc         1 UGV       0.072200
     18 H2           9.6040    -2.6360    21.9560 hc         1 UGV       0.072200
     19 H3           5.0670     0.6070    21.0290 ha         1 UGV       0.114000
     20 H4           3.7850     1.7880    19.2220 ha         1 UGV       0.124000
     21 H5           8.2390     0.0160    18.1080 h4         1 UGV       0.053100
     22 H6           8.8100     0.0660    24.4620 ha         1 UGV       0.130000
     23 H7          10.8920     1.3370    25.4040 ha         1 UGV       0.145000
     24 H8           6.9880    -0.5060    21.6440 hn         1 UGV       0.152000
     25 H9           4.8050     2.0200    16.9480 h4         1 UGV       0.023100
@<TRIPOS>BOND
     1     1     7 ar  
     2     1    16 ar  
     3     2     3 1   
     4     2     9 1   
     5     2    17 1   
     6     2    18 1   
     7     3     8 2   
     8     3    15 1   
     9     4     5 ar  
    10     4     7 ar  
    11     4    15 1   
    12     5     6 ar  
    13     5    19 1   
    14     6    16 ar  
    15     6    20 1   
    16     7    21 1   
    17     9    10 2   
    18     9    12 1   
    19    10    11 1   
    20    10    22 1   
    21    11    13 2   
    22    11    23 1   
    23    12    13 1   
    24    13    14 1   
    25    15    24 1   
    26    16    25 1   
@<TRIPOS>SUBSTRUCTURE
     1 UGV         1 TEMP              0 ****  ****    0 ROOT
