@<TRIPOS>MOLECULE
UGV
   25    26     1     0     0
SMALL
abcg2


@<TRIPOS>ATOM
      1 N1           6.6770     1.0700    17.4010 nb         1 UGV      -0.646000
      2 C4           8.7930    -0.9530    22.4730 c3         1 UGV      -0.085100
      3 C5           8.5240    -0.3380    21.1140 c          1 UGV       0.607100
      4 C6           6.6130     0.2970    19.6620 ca         1 UGV      -0.076000
      5 C7           5.2220     0.3990    19.6490 ca         1 UGV      -0.134000
      6 C8           4.5840     0.8360    18.5050 ca         1 UGV      -0.135000
      7 C10          7.2990     0.6510    18.4970 ca         1 UGV       0.324900
      8 O            9.4310    -0.0860    20.3430 o          1 UGV      -0.573100
      9 C3          10.0640    -0.4910    23.1020 cc         1 UGV      -0.227300
     10 C2          10.2540    -0.1950    24.4180 cd         1 UGV      -0.125000
     11 C1          11.6010     0.1190    24.7460 cd         1 UGV      -0.126000
     12 S           11.5470    -0.3810    22.2230 ss         1 UGV       0.325000
     13 C           12.4030     0.0410    23.6550 cc         1 UGV      -0.044000
     14 CL          14.0820     0.3660    23.5860 cl         1 UGV      -0.146000
     15 N            7.2120    -0.1540    20.8400 ns         1 UGV      -0.137000
     16 C9           5.3550     1.1610    17.3990 ca         1 UGV       0.312900
     17 H1           7.9740    -0.7720    23.1710 hc         1 UGV       0.072200
     18 H2           8.8260    -2.0380    22.3150 hc         1 UGV       0.072200
     19 H3           4.6480     0.1350    20.5290 ha         1 UGV       0.114000
     20 H4           3.5070     0.9210    18.4720 ha         1 UGV       0.124000
     21 H5           8.3750     0.5960    18.4430 h4         1 UGV       0.053100
     22 H6           9.4530    -0.2110    25.1430 ha         1 UGV       0.130000
     23 H7          11.9430     0.3900    25.7340 ha         1 UGV       0.145000
     24 H8           6.5650    -0.3860    21.5800 hn         1 UGV       0.152000
     25 H9           4.8890     1.5070    16.4840 h4         1 UGV       0.023100
@<TRIPOS>BOND
     1     1     7 ar  
     2     1    16 ar  
     3     2     3 1   
     4     2     9 1   
     5     2    17 1   
     6     2    18 1   
     7     3     8 2   
     8     3    15 1   
     9     4     5 ar  
    10     4     7 ar  
    11     4    15 1   
    12     5     6 ar  
    13     5    19 1   
    14     6    16 ar  
    15     6    20 1   
    16     7    21 1   
    17     9    10 2   
    18     9    12 1   
    19    10    11 1   
    20    10    22 1   
    21    11    13 2   
    22    11    23 1   
    23    12    13 1   
    24    13    14 1   
    25    15    24 1   
    26    16    25 1   
@<TRIPOS>SUBSTRUCTURE
     1 UGV         1 TEMP              0 ****  ****    0 ROOT
