@<TRIPOS>MOLECULE
UGW
   37    37     1     0     0
SMALL
bcc


@<TRIPOS>ATOM
      1 C10         32.1800    35.0660     8.5970 ca         1 UGW      -0.090000
      2 C13         31.4420    34.8470    13.6630 c3         1 UGW      -0.087433
      3 C15         33.8020    35.7430    13.3930 c3         1 UGW      -0.087433
      4 C01         32.0280    38.6940     8.4420 c3         1 UGW      -0.082767
      5 C02         31.2130    37.4130     8.2180 c3         1 UGW       0.007300
      6 C03         31.2800    37.0620     6.7310 c3         1 UGW      -0.082767
      7 C04         29.7470    37.6730     8.5860 c3         1 UGW      -0.082767
      8 C05         31.7590    36.2910     9.0960 ca         1 UGW      -0.103300
      9 C06         31.8350    36.4690    10.4780 ca         1 UGW      -0.092000
     10 C07         32.2980    35.5100    11.3770 ca         1 UGW      -0.150300
     11 C08         32.7070    34.2810    10.8250 ca         1 UGW       0.144100
     12 C09         32.6440    34.0790     9.4510 ca         1 UGW      -0.169000
     13 O11         33.1810    33.2250    11.5310 oh         1 UGW      -0.509100
     14 C12         32.3530    35.8100    12.8800 c3         1 UGW       0.004300
     15 C14         31.8520    37.2230    13.2000 c3         1 UGW      -0.087433
     16 H1          32.1540    34.8550     7.5370 ha         1 UGW       0.133000
     17 H2          31.4560    35.1040    14.7240 hc         1 UGW       0.036367
     18 H3          30.4120    34.9290    13.3130 hc         1 UGW       0.036367
     19 H4          31.7190    33.7950    13.5950 hc         1 UGW       0.036367
     20 H5          33.8340    35.9780    14.4590 hc         1 UGW       0.036367
     21 H6          34.2830    34.7730    13.2720 hc         1 UGW       0.036367
     22 H7          34.4230    36.4740    12.8730 hc         1 UGW       0.036367
     23 H8          31.9750    39.0380     9.4760 hc         1 UGW       0.034478
     24 H9          33.0790    38.5400     8.1940 hc         1 UGW       0.034478
     25 H10         31.6490    39.5000     7.8100 hc         1 UGW       0.034478
     26 H11         30.6840    36.1800     6.4890 hc         1 UGW       0.034478
     27 H12         30.8870    37.8910     6.1410 hc         1 UGW       0.034478
     28 H13         32.3040    36.8800     6.4000 hc         1 UGW       0.034478
     29 H14         29.6370    37.9720     9.6300 hc         1 UGW       0.034478
     30 H15         29.3310    38.4730     7.9690 hc         1 UGW       0.034478
     31 H16         29.1390    36.7790     8.4310 hc         1 UGW       0.034478
     32 H17         31.5100    37.4190    10.8770 ha         1 UGW       0.128000
     33 H18         32.9680    33.1260     9.0500 ha         1 UGW       0.144000
     34 H19         33.2010    33.4030    12.4740 ho         1 UGW       0.428000
     35 H20         31.9130    37.3850    14.2770 hc         1 UGW       0.036367
     36 H21         32.4560    37.9940    12.7190 hc         1 UGW       0.036367
     37 H22         30.8110    37.3690    12.9080 hc         1 UGW       0.036367
@<TRIPOS>BOND
     1     1     8 ar  
     2     1    12 ar  
     3     1    16 1   
     4     2    14 1   
     5     2    17 1   
     6     2    18 1   
     7     2    19 1   
     8     3    14 1   
     9     3    20 1   
    10     3    21 1   
    11     3    22 1   
    12     4     5 1   
    13     4    23 1   
    14     4    24 1   
    15     4    25 1   
    16     5     6 1   
    17     5     7 1   
    18     5     8 1   
    19     6    26 1   
    20     6    27 1   
    21     6    28 1   
    22     7    29 1   
    23     7    30 1   
    24     7    31 1   
    25     8     9 ar  
    26     9    10 ar  
    27     9    32 1   
    28    10    11 ar  
    29    10    14 1   
    30    11    12 ar  
    31    11    13 1   
    32    12    33 1   
    33    13    34 1   
    34    14    15 1   
    35    15    35 1   
    36    15    36 1   
    37    15    37 1   
@<TRIPOS>SUBSTRUCTURE
     1 UGW         1 TEMP              0 ****  ****    0 ROOT
