@<TRIPOS>MOLECULE
UGW
   37    37     1     0     0
SMALL
No Charge or Current Charge


@<TRIPOS>ATOM
      1 C10         32.2020    35.0620     8.5700 ca         1 UGW      -0.072000
      2 C13         31.4550    34.7680    13.6920 c3         1 UGW      -0.087433
      3 C15         33.8120    35.7230    13.4540 c3         1 UGW      -0.087433
      4 C01         32.0800    38.7000     8.3400 c3         1 UGW      -0.082767
      5 C02         31.2030    37.4300     8.1700 c3         1 UGW       0.007300
      6 C03         31.2030    37.0510     6.6610 c3         1 UGW      -0.082767
      7 C04         29.7390    37.7530     8.5760 c3         1 UGW      -0.082767
      8 C05         31.7530    36.2980     9.0830 ca         1 UGW      -0.103300
      9 C06         31.8130    36.5000    10.4830 ca         1 UGW      -0.074000
     10 C07         32.3030    35.5150    11.3860 ca         1 UGW      -0.150300
     11 C08         32.7430    34.2870    10.8170 ca         1 UGW       0.144100
     12 C09         32.6890    34.0750     9.4340 ca         1 UGW      -0.151000
     13 O11         33.2320    33.2670    11.5750 oh         1 UGW      -0.548100
     14 C12         32.3480    35.7910    12.9310 c3         1 UGW       0.004300
     15 C14         31.8140    37.2050    13.3130 c3         1 UGW      -0.087433
     16 H1          32.1840    34.8400     7.5080 ha         1 UGW       0.115000
     17 H2          31.3970    35.0180    14.7590 hc         1 UGW       0.036367
     18 H3          30.4340    34.7780    13.2920 hc         1 UGW       0.036367
     19 H4          31.8300    33.7430    13.6290 hc         1 UGW       0.036367
     20 H5          33.8640    36.0170    14.5100 hc         1 UGW       0.036367
     21 H6          34.2440    34.7210    13.3840 hc         1 UGW       0.036367
     22 H7          34.4540    36.4060    12.8850 hc         1 UGW       0.036367
     23 H8          32.0450    39.0850     9.3650 hc         1 UGW       0.034478
     24 H9          33.1260    38.4830     8.0960 hc         1 UGW       0.034478
     25 H10         31.7380    39.5040     7.6760 hc         1 UGW       0.034478
     26 H11         30.5750    36.1720     6.4730 hc         1 UGW       0.034478
     27 H12         30.8090    37.8740     6.0510 hc         1 UGW       0.034478
     28 H13         32.2190    36.8380     6.3060 hc         1 UGW       0.034478
     29 H14         29.6750    38.1260     9.6050 hc         1 UGW       0.034478
     30 H15         29.3110    38.5220     7.9210 hc         1 UGW       0.034478
     31 H16         29.1110    36.8570     8.5020 hc         1 UGW       0.034478
     32 H17         31.4640    37.4550    10.8540 ha         1 UGW       0.110000
     33 H18         33.0300    33.1290     9.0230 ha         1 UGW       0.126000
     34 H19         33.2080    33.5590    12.5070 ho         1 UGW       0.467000
     35 H20         31.8590    37.3640    14.3970 hc         1 UGW       0.036367
     36 H21         32.4120    37.9970    12.8450 hc         1 UGW       0.036367
     37 H22         30.7660    37.3300    13.0120 hc         1 UGW       0.036367
@<TRIPOS>BOND
     1     1     8 ar  
     2     1    12 ar  
     3     1    16 1   
     4     2    14 1   
     5     2    17 1   
     6     2    18 1   
     7     2    19 1   
     8     3    14 1   
     9     3    20 1   
    10     3    21 1   
    11     3    22 1   
    12     4     5 1   
    13     4    23 1   
    14     4    24 1   
    15     4    25 1   
    16     5     6 1   
    17     5     7 1   
    18     5     8 1   
    19     6    26 1   
    20     6    27 1   
    21     6    28 1   
    22     7    29 1   
    23     7    30 1   
    24     7    31 1   
    25     8     9 ar  
    26     9    10 ar  
    27     9    32 1   
    28    10    11 ar  
    29    10    14 1   
    30    11    12 ar  
    31    11    13 1   
    32    12    33 1   
    33    13    34 1   
    34    14    15 1   
    35    15    35 1   
    36    15    36 1   
    37    15    37 1   
@<TRIPOS>SUBSTRUCTURE
     1 UGW         1 TEMP              0 ****  ****    0 ROOT
