@<TRIPOS>MOLECULE
UGX
   47    49     1     0     0
SMALL
No Charge or Current Charge


@<TRIPOS>ATOM
      1 O13          2.9320    -1.3650     1.7270 o          1 UGX      -0.612100
      2 C12          2.7260    -0.6480     0.7600 c          1 UGX       0.601100
      3 N14          3.7380    -0.0200     0.0690 ns         1 UGX      -0.496900
      4 C21          5.1700    -0.1420     0.3730 c3         1 UGX       0.105000
      5 C15          5.9290    -1.1390    -0.5540 c3         1 UGX      -0.068000
      6 C24          5.8140    -0.6920    -2.0370 c3         1 UGX      -0.084433
      7 C23          7.4250    -1.1480    -0.1460 c3         1 UGX      -0.084433
      8 C22          5.3590    -2.5750    -0.4050 c3         1 UGX      -0.084433
      9 C11          1.3220    -0.4010     0.2170 c3         1 UGX      -0.182400
     10 C6           0.4470     0.4560     1.1780 c6         1 UGX       0.083300
     11 N5          -0.9320     0.5770     0.6690 na         1 UGX       0.038000
     12 C1          -1.9430    -0.3820     0.7400 cc         1 UGX      -0.149000
     13 C7           1.0320     1.8930     1.3940 c6         1 UGX       0.095000
     14 N8           0.6580     2.8720     0.3380 ns         1 UGX      -0.516900
     15 C9          -0.5330     2.8700    -0.3560 c          1 UGX       0.602600
     16 O10         -0.8560     3.7830    -1.0970 o          1 UGX      -0.548000
     17 C4          -1.3380     1.6730    -0.0780 cc         1 UGX      -0.266600
     18 C2          -2.6090     1.4050    -0.5120 cd         1 UGX      -0.076000
     19 C3          -2.9760     0.1420     0.0030 cd         1 UGX      -0.102000
     20 C16         -4.2320    -0.5330    -0.1990 cd         1 UGX      -0.012000
     21 C18         -4.4780    -1.7670     0.3490 cc         1 UGX      -0.256000
     22 S20         -6.0940    -2.3210    -0.0790 ss         1 UGX       0.197000
     23 C19         -6.3970    -0.8490    -1.0010 cc         1 UGX      -0.245000
     24 C17         -5.3120    -0.0110    -0.9620 cd         1 UGX      -0.120000
     25 H14          3.4640     0.5470    -0.7240 hn         1 UGX       0.315500
     26 H111         1.3800     0.0930    -0.7600 hc         1 UGX       0.077700
     27 H112         0.8450    -1.3800     0.0850 hc         1 UGX       0.077700
     28 H211         5.6200     0.8550     0.2760 h1         1 UGX       0.057200
     29 H212         5.2930    -0.4500     1.4200 h1         1 UGX       0.057200
     30 H241         6.1910     0.3290    -2.1690 hc         1 UGX       0.036144
     31 H242         6.3970    -1.3530    -2.6900 hc         1 UGX       0.036144
     32 H243         4.7730    -0.7180    -2.3820 hc         1 UGX       0.036144
     33 H231         7.5450    -1.4660     0.8970 hc         1 UGX       0.036144
     34 H232         8.0020    -1.8360    -0.7770 hc         1 UGX       0.036144
     35 H233         7.8660    -0.1490    -0.2470 hc         1 UGX       0.036144
     36 H221         4.3160    -2.6280    -0.7390 hc         1 UGX       0.036144
     37 H222         5.9360    -3.2890    -1.0050 hc         1 UGX       0.036144
     38 H223         5.3980    -2.9050     0.6410 hc         1 UGX       0.036144
     39 H6           0.4110    -0.0560     2.1510 h1         1 UGX       0.096700
     40 H71C         0.6400     2.2820     2.3440 h1         1 UGX       0.062200
     41 H72C         2.1260     1.8620     1.4910 h1         1 UGX       0.062200
     42 H1          -1.8320    -1.3180     1.2720 h4         1 UGX       0.151000
     43 H8           1.2590     3.6720     0.1810 hn         1 UGX       0.321500
     44 H2          -3.2190     2.0560    -1.1320 ha         1 UGX       0.149000
     45 H18         -3.8480    -2.3930     0.9650 h4         1 UGX       0.145000
     46 H17         -5.2880     0.9510    -1.4650 ha         1 UGX       0.136000
     47 H19         -7.3490    -0.7160    -1.4980 h4         1 UGX       0.149000
@<TRIPOS>BOND
     1     1     2 2   
     2     2     3 1   
     3     2     9 1   
     4     3     4 1   
     5     3    25 1   
     6     4     5 1   
     7     4    28 1   
     8     4    29 1   
     9     5     6 1   
    10     5     7 1   
    11     5     8 1   
    12     6    30 1   
    13     6    31 1   
    14     6    32 1   
    15     7    33 1   
    16     7    34 1   
    17     7    35 1   
    18     8    36 1   
    19     8    37 1   
    20     8    38 1   
    21     9    10 1   
    22     9    26 1   
    23     9    27 1   
    24    10    11 1   
    25    10    13 1   
    26    10    39 1   
    27    11    12 1   
    28    11    17 1   
    29    12    19 2   
    30    12    42 1   
    31    13    14 1   
    32    13    40 1   
    33    13    41 1   
    34    14    15 1   
    35    14    43 1   
    36    15    16 2   
    37    15    17 1   
    38    17    18 2   
    39    18    19 1   
    40    18    44 1   
    41    19    20 1   
    42    20    21 2   
    43    20    24 1   
    44    21    22 1   
    45    21    45 1   
    46    22    23 1   
    47    23    24 2   
    48    23    47 1   
    49    24    46 1   
@<TRIPOS>SUBSTRUCTURE
     1 UGX         1 TEMP              0 ****  ****    0 ROOT
