@<TRIPOS>MOLECULE
UGX
   47    49     1     0     0
SMALL
abcg2


@<TRIPOS>ATOM
      1 O13          2.9900    -0.8270     1.7750 o          1 UGX      -0.612100
      2 C12          2.8020    -0.3130     0.6800 c          1 UGX       0.601100
      3 N14          3.7850     0.0830    -0.1420 ns         1 UGX      -0.496900
      4 C21          5.1970    -0.0610     0.1290 c3         1 UGX       0.105000
      5 C15          5.8770    -1.2160    -0.6230 c3         1 UGX      -0.068000
      6 C24          5.7060    -1.0370    -2.1320 c3         1 UGX      -0.084433
      7 C23          7.3650    -1.1700    -0.2710 c3         1 UGX      -0.084433
      8 C22          5.2930    -2.5600    -0.1910 c3         1 UGX      -0.084433
      9 C11          1.4000    -0.0820     0.1520 c3         1 UGX      -0.182400
     10 C6           0.4780     0.4770     1.2360 c6         1 UGX       0.083300
     11 N5          -0.8810     0.5780     0.7360 na         1 UGX       0.038000
     12 C1          -1.8190    -0.3880     0.6860 cc         1 UGX      -0.149000
     13 C7           0.8700     1.8700     1.7070 c6         1 UGX       0.095000
     14 N8           0.6480     2.8420     0.6550 ns         1 UGX      -0.516900
     15 C9          -0.5000     2.8850    -0.0560 c          1 UGX       0.602600
     16 O10         -0.8170     3.8230    -0.7770 o          1 UGX      -0.548000
     17 C4          -1.3320     1.6890     0.0770 cc         1 UGX      -0.266600
     18 C2          -2.6000     1.4230    -0.3870 cd         1 UGX      -0.076000
     19 C3          -2.9210     0.1020     0.0020 cd         1 UGX      -0.102000
     20 C16         -4.1710    -0.6040    -0.2530 cd         1 UGX      -0.012000
     21 C18         -4.5380    -1.7910     0.3220 cc         1 UGX      -0.256000
     22 S20         -6.0710    -2.3270    -0.2190 ss         1 UGX       0.197000
     23 C19         -6.2550    -0.9570    -1.2300 cc         1 UGX      -0.245000
     24 C17         -5.1790    -0.1310    -1.1510 cd         1 UGX      -0.120000
     25 H14          3.5240     0.5160    -1.0120 hn         1 UGX       0.315500
     26 H111         1.4010     0.5760    -0.7200 hc         1 UGX       0.077700
     27 H112         1.0090    -1.0480    -0.1810 hc         1 UGX       0.077700
     28 H211         5.6860     0.8780    -0.1450 h1         1 UGX       0.057200
     29 H212         5.3290    -0.1900     1.2030 h1         1 UGX       0.057200
     30 H241         6.1100    -0.0790    -2.4670 hc         1 UGX       0.036144
     31 H242         6.2290    -1.8250    -2.6760 hc         1 UGX       0.036144
     32 H243         4.6560    -1.0810    -2.4310 hc         1 UGX       0.036144
     33 H231         7.5230    -1.2940     0.8030 hc         1 UGX       0.036144
     34 H232         7.9090    -1.9680    -0.7800 hc         1 UGX       0.036144
     35 H233         7.8150    -0.2190    -0.5670 hc         1 UGX       0.036144
     36 H221         4.2330    -2.6410    -0.4380 hc         1 UGX       0.036144
     37 H222         5.8090    -3.3800    -0.6950 hc         1 UGX       0.036144
     38 H223         5.3970    -2.7110     0.8850 hc         1 UGX       0.036144
     39 H6           0.4740    -0.1920     2.0960 h1         1 UGX       0.096700
     40 H71C         0.2970     2.1220     2.6040 h1         1 UGX       0.062200
     41 H72C         1.9230     1.8930     1.9830 h1         1 UGX       0.062200
     42 H1          -1.6470    -1.3550     1.1330 h4         1 UGX       0.151000
     43 H8           1.2290     3.6660     0.6430 hn         1 UGX       0.321500
     44 H2          -3.2260     2.1150    -0.9280 ha         1 UGX       0.149000
     45 H18         -3.9870    -2.3750     1.0440 h4         1 UGX       0.145000
     46 H17         -5.1000     0.7840    -1.7200 ha         1 UGX       0.136000
     47 H19         -7.1420    -0.8330    -1.8310 h4         1 UGX       0.149000
@<TRIPOS>BOND
     1     1     2 2   
     2     2     3 1   
     3     2     9 1   
     4     3     4 1   
     5     3    25 1   
     6     4     5 1   
     7     4    28 1   
     8     4    29 1   
     9     5     6 1   
    10     5     7 1   
    11     5     8 1   
    12     6    30 1   
    13     6    31 1   
    14     6    32 1   
    15     7    33 1   
    16     7    34 1   
    17     7    35 1   
    18     8    36 1   
    19     8    37 1   
    20     8    38 1   
    21     9    10 1   
    22     9    26 1   
    23     9    27 1   
    24    10    11 1   
    25    10    13 1   
    26    10    39 1   
    27    11    12 1   
    28    11    17 1   
    29    12    19 2   
    30    12    42 1   
    31    13    14 1   
    32    13    40 1   
    33    13    41 1   
    34    14    15 1   
    35    14    43 1   
    36    15    16 2   
    37    15    17 1   
    38    17    18 2   
    39    18    19 1   
    40    18    44 1   
    41    19    20 1   
    42    20    21 2   
    43    20    24 1   
    44    21    22 1   
    45    21    45 1   
    46    22    23 1   
    47    23    24 2   
    48    23    47 1   
    49    24    46 1   
@<TRIPOS>SUBSTRUCTURE
     1 UGX         1 TEMP              0 ****  ****    0 ROOT
