@<TRIPOS>MOLECULE
UGY
   15    14     1     0     0
SMALL
No Charge or Current Charge


@<TRIPOS>ATOM
      1 OXT         41.1420     8.2190     1.5170 o          1 UGY      -0.830300
      2 C           42.1950     7.7760     1.0600 c          1 UGY       0.933600
      3 O           42.9900     8.4960     0.4530 o          1 UGY      -0.830300
      4 CA          42.4860     6.1860     1.1900 c3         1 UGY       0.186900
      5 N           42.1550     5.3150     0.0290 n8         1 UGY      -0.897800
      6 NB          43.8920     5.8870     1.4200 ns         1 UGY      -0.548900
      7 CG          44.5540     6.1970     2.5630 c          1 UGY       0.762100
      8 OE          44.0410     6.7070     3.5400 o          1 UGY      -0.695100
      9 NE          45.8540     5.8820     2.5270 nt         1 UGY      -0.673000
     10 HA          41.9340     5.8100     2.0590 h2         1 UGY       0.013700
     11 H           42.2680     4.3370     0.3110 hn         1 UGY       0.338800
     12 H2          41.1540     5.4060    -0.1730 hn         1 UGY       0.338800
     13 H6          44.4330     5.5080     0.6590 hn         1 UGY       0.339500
     14 H7          46.4240     6.0750     3.3360 hn         1 UGY       0.281000
     15 H8          46.2510     5.4560     1.7050 hn         1 UGY       0.281000
@<TRIPOS>BOND
     1     1     2 1   
     2     2     3 1   
     3     2     4 1   
     4     4     5 1   
     5     4     6 1   
     6     4    10 1   
     7     5    11 1   
     8     5    12 1   
     9     6     7 1   
    10     6    13 1   
    11     7     8 2   
    12     7     9 1   
    13     9    14 1   
    14     9    15 1   
@<TRIPOS>SUBSTRUCTURE
     1 UGY         1 TEMP              0 ****  ****    0 ROOT
