@<TRIPOS>MOLECULE
UGY
   15    14     1     0     0
SMALL
bcc


@<TRIPOS>ATOM
      1 OXT         40.9470     7.7660     0.2090 o          1 UGY      -0.830300
      2 C           42.1620     7.6640     0.4560 c          1 UGY       0.933600
      3 O           43.0780     8.4260     0.0970 o          1 UGY      -0.830300
      4 CA          42.5500     6.4390     1.3330 c3         1 UGY       0.186900
      5 N           41.9730     5.2410     0.7420 n8         1 UGY      -0.897800
      6 NB          43.9820     6.3510     1.4220 ns         1 UGY      -0.548900
      7 CG          44.6110     5.5780     2.3340 c          1 UGY       0.762100
      8 OE          44.0110     4.8250     3.0980 o          1 UGY      -0.695100
      9 NE          45.9790     5.6460     2.3140 nt         1 UGY      -0.673000
     10 HA          42.1500     6.6300     2.3410 h2         1 UGY       0.013700
     11 H           41.9600     4.5000     1.4320 hn         1 UGY       0.338800
     12 H2          41.0050     5.4440     0.5250 hn         1 UGY       0.338800
     13 H6          44.4860     7.0240     0.8650 hn         1 UGY       0.339500
     14 H7          46.4490     5.2770     3.1250 hn         1 UGY       0.281000
     15 H8          46.4320     6.4460     1.9030 hn         1 UGY       0.281000
@<TRIPOS>BOND
     1     1     2 1   
     2     2     3 1   
     3     2     4 1   
     4     4     5 1   
     5     4     6 1   
     6     4    10 1   
     7     5    11 1   
     8     5    12 1   
     9     6     7 1   
    10     6    13 1   
    11     7     8 2   
    12     7     9 1   
    13     9    14 1   
    14     9    15 1   
@<TRIPOS>SUBSTRUCTURE
     1 UGY         1 TEMP              0 ****  ****    0 ROOT
