@<TRIPOS>MOLECULE
UGZ
   61    64     1     0     0
SMALL
bcc


@<TRIPOS>ATOM
      1 C6          38.9850     2.2660   -23.0600 ca         1 UGZ      -0.132300
      2 C5          41.1970     1.8680   -25.9240 c3         1 UGZ       0.123700
      3 C7          39.5900     3.4570   -22.3710 c3         1 UGZ       0.217100
      4 C4          39.5110     1.7460   -24.2520 ca         1 UGZ       0.166100
      5 O2          39.7700     6.7690   -26.0000 o          1 UGZ      -0.609800
      6 C2          37.7590     0.0730   -24.3240 cp         1 UGZ       0.010000
      7 N1          40.5230     7.6540   -23.7910 n7         1 UGZ      -0.840100
      8 N           39.3380     4.6940   -23.1000 n7         1 UGZ      -0.806200
      9 C           35.8340    -1.1730   -25.4050 ca         1 UGZ       0.052400
     10 O           40.6190     2.3420   -24.7270 os         1 UGZ      -0.311900
     11 C1          37.1680    -1.1080   -24.9950 cp         1 UGZ      -0.036000
     12 C10         41.8890     5.5740   -24.9970 c3         1 UGZ      -0.274300
     13 C11         37.8590     1.6560   -22.5250 ca         1 UGZ      -0.092000
     14 C12         37.2450     0.5710   -23.1340 ca         1 UGZ      -0.143000
     15 C13         37.9770    -2.2180   -25.2340 ca         1 UGZ      -0.111000
     16 C14         37.4730    -3.3550   -25.8410 ca         1 UGZ      -0.129000
     17 C15         36.1450    -3.3970   -26.2270 ca         1 UGZ      -0.108000
     18 C16         35.3000    -2.3070   -26.0240 cp         1 UGZ      -0.024000
     19 C17         33.8880    -2.4070   -26.4570 cp         1 UGZ      -0.045000
     20 C18         33.3480    -1.5500   -27.4140 ca         1 UGZ      -0.100000
     21 C19         32.0380    -1.7040   -27.8320 ca         1 UGZ      -0.129000
     22 C20         33.0860    -3.4100   -25.9230 ca         1 UGZ      -0.110000
     23 C21         31.7670    -3.5640   -26.3290 ca         1 UGZ       0.050100
     24 C22         31.2360    -2.7050   -27.2970 ca         1 UGZ       0.065100
     25 C23         29.3280    -4.0420   -27.3850 c6         1 UGZ       0.094400
     26 C24         29.6290    -4.3970   -25.9490 c6         1 UGZ       0.094400
     27 C3          38.8970     0.6620   -24.8750 ca         1 UGZ      -0.208000
     28 C8          39.5690     5.8620   -22.2700 c3         1 UGZ       0.113800
     29 C9          39.3800     7.1680   -23.0310 c3         1 UGZ       0.221800
     30 O1          41.9190     8.0600   -25.7960 o          1 UGZ      -0.609800
     31 O3          29.9610    -2.8190   -27.7330 os         1 UGZ      -0.304900
     32 O4          31.0280    -4.5470   -25.7640 os         1 UGZ      -0.305900
     33 S           40.9840     7.0800   -25.2570 s6         1 UGZ       1.243900
     34 H1          42.0680     2.4920   -26.1130 h1         1 UGZ       0.042033
     35 H2          41.5220     0.8280   -25.8400 h1         1 UGZ       0.042033
     36 H3          40.5130     1.9580   -26.7720 h1         1 UGZ       0.042033
     37 H4          40.6720     3.3360   -22.2600 h1         1 UGZ       0.038700
     38 H5          39.1800     3.4990   -21.3510 h1         1 UGZ       0.038700
     39 H6          41.3040     7.9740   -23.2310 hn         1 UGZ       0.424800
     40 H7          38.3700     4.7020   -23.3990 hn         1 UGZ       0.366800
     41 H9          41.2290     4.8570   -24.5140 h1         1 UGZ       0.107700
     42 H10         42.2170     5.2050   -25.9680 h1         1 UGZ       0.107700
     43 H11         42.7530     5.7880   -24.3720 h1         1 UGZ       0.107700
     44 H12         37.4510     2.0400   -21.5970 ha         1 UGZ       0.130000
     45 H13         36.3810     0.1130   -22.6720 ha         1 UGZ       0.144000
     46 H14         39.0130    -2.1840   -24.9210 ha         1 UGZ       0.138000
     47 H15         38.1160    -4.2080   -26.0120 ha         1 UGZ       0.138000
     48 H16         35.7480    -4.2820   -26.7070 ha         1 UGZ       0.141000
     49 H17         33.9560    -0.7710   -27.8540 ha         1 UGZ       0.144000
     50 H18         31.6230    -1.0480   -28.5870 ha         1 UGZ       0.148000
     51 H19         33.4800    -4.0810   -25.1690 ha         1 UGZ       0.148000
     52 H20         28.2580    -3.9030   -27.5280 h1         1 UGZ       0.067200
     53 H21         29.6650    -4.8420   -28.0530 h1         1 UGZ       0.067200
     54 H22         29.2410    -3.6240   -25.2760 h1         1 UGZ       0.067700
     55 H23         29.1650    -5.3460   -25.6850 h1         1 UGZ       0.067700
     56 H24         39.2900     0.2630   -25.8010 ha         1 UGZ       0.141000
     57 H25         40.5890     5.8210   -21.8760 h1         1 UGZ       0.037200
     58 H26         38.9050     5.8780   -21.3910 h1         1 UGZ       0.037200
     59 H27         39.1550     7.9580   -22.3150 h1         1 UGZ       0.069200
     60 H28         38.5160     7.1050   -23.6930 h1         1 UGZ       0.069200
     61 CL          34.8000     0.1960   -25.1440 cl         1 UGZ      -0.099400
@<TRIPOS>BOND
     1     1     3 1   
     2     1     4 ar  
     3     1    13 ar  
     4     2    10 1   
     5     2    34 1   
     6     2    35 1   
     7     2    36 1   
     8     3     8 1   
     9     3    37 1   
    10     3    38 1   
    11     4    10 1   
    12     4    27 ar  
    13     5    33 2   
    14     6    11 1   
    15     6    14 ar  
    16     6    27 ar  
    17     7    29 1   
    18     7    33 1   
    19     7    39 1   
    20     8    28 1   
    21     8    40 1   
    22     9    11 ar  
    23     9    18 ar  
    24     9    61 1   
    25    11    15 ar  
    26    12    33 1   
    27    12    41 1   
    28    12    42 1   
    29    12    43 1   
    30    13    14 ar  
    31    13    44 1   
    32    14    45 1   
    33    15    16 ar  
    34    15    46 1   
    35    16    17 ar  
    36    16    47 1   
    37    17    18 ar  
    38    17    48 1   
    39    18    19 1   
    40    19    20 ar  
    41    19    22 ar  
    42    20    21 ar  
    43    20    49 1   
    44    21    24 ar  
    45    21    50 1   
    46    22    23 ar  
    47    22    51 1   
    48    23    24 ar  
    49    23    32 1   
    50    24    31 1   
    51    25    26 1   
    52    25    31 1   
    53    25    52 1   
    54    25    53 1   
    55    26    32 1   
    56    26    54 1   
    57    26    55 1   
    58    27    56 1   
    59    28    29 1   
    60    28    57 1   
    61    28    58 1   
    62    29    59 1   
    63    29    60 1   
    64    30    33 2   
@<TRIPOS>SUBSTRUCTURE
     1 UGZ         1 TEMP              0 ****  ****    0 ROOT
