@<TRIPOS>MOLECULE
UGZ
   61    64     1     0     0
SMALL
No Charge or Current Charge


@<TRIPOS>ATOM
      1 C6          39.3790     2.0730   -22.7720 ca         1 UGZ      -0.132300
      2 C5          41.9800     1.1210   -25.3020 c3         1 UGZ       0.146900
      3 C7          40.0330     3.2860   -22.1220 c3         1 UGZ       0.217100
      4 C4          40.0160     1.3590   -23.8130 ca         1 UGZ       0.166100
      5 O2          37.6090     7.1610   -25.3630 o          1 UGZ      -0.539000
      6 C2          38.0990    -0.1830   -23.9420 cp         1 UGZ       0.010000
      7 N1          39.8560     6.8470   -24.3020 n7         1 UGZ      -0.895300
      8 N           39.4780     4.5290   -22.6860 n7         1 UGZ      -0.861400
      9 C           36.1570    -1.3330   -25.1500 ca         1 UGZ       0.144000
     10 O           41.2630     1.7790   -24.2430 os         1 UGZ      -0.335100
     11 C1          37.4470    -1.3830   -24.5470 cp         1 UGZ      -0.036000
     12 C10         39.7520     7.1470   -26.9380 c3         1 UGZ      -0.385100
     13 C11         38.1160     1.6500   -22.3150 ca         1 UGZ      -0.074000
     14 C12         37.4870     0.5350   -22.8900 ca         1 UGZ      -0.125000
     15 C13         38.1330    -2.6200   -24.5280 ca         1 UGZ      -0.093000
     16 C14         37.5550    -3.7780   -25.0650 ca         1 UGZ      -0.111000
     17 C15         36.2790    -3.7180   -25.6440 ca         1 UGZ      -0.090000
     18 C16         35.5630    -2.5000   -25.7100 cp         1 UGZ      -0.024000
     19 C17         34.2170    -2.4870   -26.3580 cp         1 UGZ      -0.045000
     20 C18         33.9370    -1.6450   -27.4630 ca         1 UGZ      -0.082000
     21 C19         32.6750    -1.6540   -28.0820 ca         1 UGZ      -0.111000
     22 C20         33.1930    -3.3500   -25.8960 ca         1 UGZ      -0.092000
     23 C21         31.9270    -3.3560   -26.5020 ca         1 UGZ       0.050100
     24 C22         31.6710    -2.5130   -27.6110 ca         1 UGZ       0.065100
     25 C23         29.5590    -3.6350   -27.9490 c6         1 UGZ       0.117600
     26 C24         29.5850    -3.9430   -26.4360 c6         1 UGZ       0.117600
     27 C3          39.3740     0.2380   -24.3850 ca         1 UGZ      -0.190000
     28 C8          40.0120     5.7860   -22.0950 c3         1 UGZ       0.113800
     29 C9          39.5110     7.0250   -22.8820 c3         1 UGZ       0.221800
     30 O1          39.2640     9.1000   -25.2290 o          1 UGZ      -0.539000
     31 O3          30.4420    -2.5290   -28.2410 os         1 UGZ      -0.328100
     32 O4          30.9430    -4.1900   -26.0070 os         1 UGZ      -0.329100
     33 S           38.9750     7.6790   -25.4310 s6         1 UGZ       1.213100
     34 H1          42.9400     1.6220   -25.4790 h1         1 UGZ       0.042033
     35 H2          42.1850     0.0750   -25.0440 h1         1 UGZ       0.042033
     36 H3          41.4050     1.1480   -26.2370 h1         1 UGZ       0.042033
     37 H4          41.1220     3.2520   -22.2600 h1         1 UGZ       0.038700
     38 H5          39.8480     3.2460   -21.0390 h1         1 UGZ       0.038700
     39 H6          39.6060     5.8820   -24.5200 hn         1 UGZ       0.480000
     40 H7          38.4600     4.5040   -22.5460 hn         1 UGZ       0.422000
     41 H9          39.6240     6.0630   -27.0170 h1         1 UGZ       0.107700
     42 H10         39.2530     7.6660   -27.7620 h1         1 UGZ       0.107700
     43 H11         40.8090     7.4220   -26.8760 h1         1 UGZ       0.107700
     44 H12         37.6210     2.1850   -21.5070 ha         1 UGZ       0.112000
     45 H13         36.5170     0.2180   -22.5140 ha         1 UGZ       0.126000
     46 H14         39.1210    -2.6790   -24.0760 ha         1 UGZ       0.120000
     47 H15         38.0940    -4.7220   -25.0320 ha         1 UGZ       0.120000
     48 H16         35.8430    -4.6220   -26.0640 ha         1 UGZ       0.123000
     49 H17         34.7130    -0.9870   -27.8490 ha         1 UGZ       0.126000
     50 H18         32.4790    -1.0050   -28.9330 ha         1 UGZ       0.130000
     51 H19         33.3820    -4.0070   -25.0500 ha         1 UGZ       0.130000
     52 H20         28.5400    -3.3860   -28.2770 h1         1 UGZ       0.067200
     53 H21         29.8970    -4.5190   -28.5080 h1         1 UGZ       0.067200
     54 H22         29.1860    -3.0820   -25.8800 h1         1 UGZ       0.067700
     55 H23         28.9640    -4.8200   -26.2060 h1         1 UGZ       0.067700
     56 H24         39.8440    -0.3240   -25.1850 ha         1 UGZ       0.123000
     57 H25         41.1100     5.7810   -22.1260 h1         1 UGZ       0.037200
     58 H26         39.7100     5.8800   -21.0430 h1         1 UGZ       0.037200
     59 H27         39.9600     7.9400   -22.4710 h1         1 UGZ       0.069200
     60 H28         38.4230     7.0940   -22.7400 h1         1 UGZ       0.069200
     61 Cl          35.2780     0.2040   -25.2030 cl         1 UGZ      -0.191000
@<TRIPOS>BOND
     1     1     3 1   
     2     1     4 ar  
     3     1    13 ar  
     4     2    10 1   
     5     2    34 1   
     6     2    35 1   
     7     2    36 1   
     8     3     8 1   
     9     3    37 1   
    10     3    38 1   
    11     4    10 1   
    12     4    27 ar  
    13     5    33 2   
    14     6    11 1   
    15     6    14 ar  
    16     6    27 ar  
    17     7    29 1   
    18     7    33 1   
    19     7    39 1   
    20     8    28 1   
    21     8    40 1   
    22     9    11 ar  
    23     9    18 ar  
    24     9    61 1   
    25    11    15 ar  
    26    12    33 1   
    27    12    41 1   
    28    12    42 1   
    29    12    43 1   
    30    13    14 ar  
    31    13    44 1   
    32    14    45 1   
    33    15    16 ar  
    34    15    46 1   
    35    16    17 ar  
    36    16    47 1   
    37    17    18 ar  
    38    17    48 1   
    39    18    19 1   
    40    19    20 ar  
    41    19    22 ar  
    42    20    21 ar  
    43    20    49 1   
    44    21    24 ar  
    45    21    50 1   
    46    22    23 ar  
    47    22    51 1   
    48    23    24 ar  
    49    23    32 1   
    50    24    31 1   
    51    25    26 1   
    52    25    31 1   
    53    25    52 1   
    54    25    53 1   
    55    26    32 1   
    56    26    54 1   
    57    26    55 1   
    58    27    56 1   
    59    28    29 1   
    60    28    57 1   
    61    28    58 1   
    62    29    59 1   
    63    29    60 1   
    64    30    33 2   
@<TRIPOS>SUBSTRUCTURE
     1 UGZ         1 TEMP              0 ****  ****    0 ROOT
