@<TRIPOS>MOLECULE
UH1
   29    30     1     0     0
SMALL
No Charge or Current Charge


@<TRIPOS>ATOM
      1 N1           7.6670     0.1350    21.3060 ns         1 UH1      -0.147000
      2 C4          12.8230     0.5080    23.3140 ca         1 UH1      -0.111000
      3 C5          13.2460    -0.6370    22.6190 ca         1 UH1      -0.064000
      4 C6          12.2980    -1.5730    22.1610 ca         1 UH1      -0.016000
      5 C7          12.7280    -2.7450    21.4490 cg         1 UH1       0.323000
      6 C8          10.9270    -1.3560    22.4050 ca         1 UH1      -0.058000
      7 C10          6.3140    -0.4810    19.3880 ca         1 UH1      -0.136000
      8 C13          6.8730     1.8620    19.6660 ca         1 UH1       0.322900
      9 N           13.0670    -3.7000    20.8680 n1         1 UH1      -0.450000
     10 C3          11.4550     0.7220    23.5560 ca         1 UH1      -0.067000
     11 C2          10.5000    -0.2080    23.1030 ca         1 UH1      -0.076300
     12 C1           9.0150     0.0290    23.3600 c3         1 UH1      -0.116100
     13 C            8.3950     0.8680    22.2350 c          1 UH1       0.605100
     14 O            8.5560     2.0810    22.1750 o          1 UH1      -0.558100
     15 C9           6.9610     0.5230    20.1310 ca         1 UH1      -0.073000
     16 N2           6.1970     2.2140    18.5440 nb         1 UH1      -0.646000
     17 C12          5.5810     1.2360    17.8410 ca         1 UH1       0.310900
     18 C11          5.6150    -0.1150    18.2260 ca         1 UH1      -0.135000
     19 H1           7.6330    -0.8590    21.4960 hn         1 UH1       0.149000
     20 H2          13.5560     1.2310    23.6660 ha         1 UH1       0.123000
     21 H3          14.3070    -0.7950    22.4360 ha         1 UH1       0.128000
     22 H4          10.1950    -2.0790    22.0500 ha         1 UH1       0.123000
     23 H5           6.3520    -1.5230    19.7020 ha         1 UH1       0.113000
     24 H6           7.3490     2.6860    20.1910 h4         1 UH1       0.053100
     25 H7          11.1380     1.6140    24.0920 ha         1 UH1       0.117000
     26 H8           8.8880     0.5670    24.3070 hc         1 UH1       0.069200
     27 H9           8.5020    -0.9380    23.4260 hc         1 UH1       0.069200
     28 H10          5.0440     1.5440    16.9440 h4         1 UH1       0.023100
     29 H11          5.1030    -0.8630    17.6260 ha         1 UH1       0.124000
@<TRIPOS>BOND
     1     1    13 1   
     2     1    15 1   
     3     1    19 1   
     4     2     3 ar  
     5     2    10 ar  
     6     2    20 1   
     7     3     4 ar  
     8     3    21 1   
     9     4     5 1   
    10     4     6 ar  
    11     5     9 3   
    12     6    11 ar  
    13     6    22 1   
    14     7    15 ar  
    15     7    18 ar  
    16     7    23 1   
    17     8    15 ar  
    18     8    16 ar  
    19     8    24 1   
    20    10    11 ar  
    21    10    25 1   
    22    11    12 1   
    23    12    13 1   
    24    12    26 1   
    25    12    27 1   
    26    13    14 2   
    27    16    17 ar  
    28    17    18 ar  
    29    17    28 1   
    30    18    29 1   
@<TRIPOS>SUBSTRUCTURE
     1 UH1         1 TEMP              0 ****  ****    0 ROOT
