@<TRIPOS>MOLECULE
UH1
   29    30     1     0     0
SMALL
abcg2


@<TRIPOS>ATOM
      1 N1           7.4670    -0.0150    21.0570 ns         1 UH1      -0.147000
      2 C4          12.5920     0.6520    23.7580 ca         1 UH1      -0.111000
      3 C5          13.4450    -0.3120    23.2470 ca         1 UH1      -0.064000
      4 C6          12.9040    -1.3790    22.5320 ca         1 UH1      -0.016000
      5 C7          13.7680    -2.3840    21.9990 cg         1 UH1       0.323000
      6 C8          11.5280    -1.4800    22.3300 ca         1 UH1      -0.058000
      7 C10          5.4040     0.1070    19.8690 ca         1 UH1      -0.136000
      8 C13          7.1990     1.4820    19.1000 ca         1 UH1       0.322900
      9 N           14.4640    -3.1920    21.5650 n1         1 UH1      -0.450000
     10 C3          11.2230     0.5510    23.5560 ca         1 UH1      -0.067000
     11 C2          10.6770    -0.5130    22.8430 ca         1 UH1      -0.076300
     12 C1           9.2010    -0.6020    22.6100 c3         1 UH1      -0.116100
     13 C            8.7700     0.1840    21.3810 c          1 UH1       0.605100
     14 O            9.5220     0.9170    20.7710 o          1 UH1      -0.558100
     15 C9           6.7240     0.5350    20.0120 ca         1 UH1      -0.073000
     16 N2           6.4460     1.9740    18.1230 nb         1 UH1      -0.646000
     17 C12          5.1940     1.5590    17.9950 ca         1 UH1       0.310900
     18 C11          4.6290     0.6240    18.8500 ca         1 UH1      -0.135000
     19 H1           6.9580    -0.6620    21.6410 hn         1 UH1       0.149000
     20 H2          12.9970     1.4850    24.3160 ha         1 UH1       0.123000
     21 H3          14.5130    -0.2420    23.4010 ha         1 UH1       0.128000
     22 H4          11.1270    -2.3190    21.7750 ha         1 UH1       0.123000
     23 H5           4.9900    -0.6250    20.5530 ha         1 UH1       0.113000
     24 H6           8.2100     1.8550    19.1580 h4         1 UH1       0.053100
     25 H7          10.5690     1.3100    23.9680 ha         1 UH1       0.117000
     26 H8           8.6530    -0.2110    23.4730 hc         1 UH1       0.069200
     27 H9           8.8890    -1.6430    22.5000 hc         1 UH1       0.069200
     28 H10          4.6160     1.9870    17.1840 h4         1 UH1       0.023100
     29 H11          3.6040     0.3060    18.7190 ha         1 UH1       0.124000
@<TRIPOS>BOND
     1     1    13 1   
     2     1    15 1   
     3     1    19 1   
     4     2     3 ar  
     5     2    10 ar  
     6     2    20 1   
     7     3     4 ar  
     8     3    21 1   
     9     4     5 1   
    10     4     6 ar  
    11     5     9 3   
    12     6    11 ar  
    13     6    22 1   
    14     7    15 ar  
    15     7    18 ar  
    16     7    23 1   
    17     8    15 ar  
    18     8    16 ar  
    19     8    24 1   
    20    10    11 ar  
    21    10    25 1   
    22    11    12 1   
    23    12    13 1   
    24    12    26 1   
    25    12    27 1   
    26    13    14 2   
    27    16    17 ar  
    28    17    18 ar  
    29    17    28 1   
    30    18    29 1   
@<TRIPOS>SUBSTRUCTURE
     1 UH1         1 TEMP              0 ****  ****    0 ROOT
