@<TRIPOS>MOLECULE
UH2
   61    65     1     0     0
SMALL
No Charge or Current Charge


@<TRIPOS>ATOM
      1 N           20.9270    12.7390    46.3600 n8         1 UH2      -1.011200
      2 CA          21.3260    12.5190    44.9210 c3         1 UH2       0.021500
      3 C           21.6970    11.0230    44.5210 c          1 UH2       0.721000
      4 O           20.7800    10.2670    44.2270 o          1 UH2      -0.726000
      5 CB          22.4360    13.5210    44.4940 c3         1 UH2      -0.041400
      6 OXT         22.8720    10.6740    44.5180 o          1 UH2      -0.726000
      7 C10         25.1800    23.2650    42.3300 ca         1 UH2       0.178900
      8 C12         23.6530    21.9940    43.4810 ca         1 UH2       0.160500
      9 C13         24.1990    22.4550    44.6560 ca         1 UH2      -0.238800
     10 C14         23.4730    21.8760    45.7510 cc         1 UH2      -0.012900
     11 C15         23.6630    22.0580    47.1470 cg         1 UH2      -0.036300
     12 C16         23.8010    22.1490    48.3570 ch         1 UH2      -0.183200
     13 C17         23.9140    22.1840    49.7690 cd         1 UH2       0.496700
     14 C19         23.8500    22.8970    51.8150 ca         1 UH2      -0.078200
     15 C20         24.2700    21.5960    51.7770 ca         1 UH2       0.068400
     16 C22         24.5870    20.9150    52.9620 ca         1 UH2      -0.043000
     17 C23         24.4630    21.6030    54.1900 ca         1 UH2      -0.138000
     18 C24         24.0270    22.9490    54.2140 ca         1 UH2      -0.093000
     19 C25         23.7130    23.6140    53.0100 ca         1 UH2      -0.119000
     20 C26         22.4970    21.0780    45.1800 cd         1 UH2      -0.100100
     21 C28         21.7630    20.4020    42.8000 c5         1 UH2       0.271300
     22 C29         22.5320    19.6120    41.6680 c5         1 UH2       0.084300
     23 C31         21.8660    18.2020    41.7030 c5         1 UH2       0.155300
     24 C33         21.4610    18.1020    43.2050 c5         1 UH2       0.166300
     25 C35         22.6240    17.7650    44.1830 c3         1 UH2       0.029600
     26 C37         22.0050    15.0020    44.5320 c3         1 UH2       0.084600
     27 C8          25.2760    23.3490    44.6110 ca         1 UH2       0.436900
     28 N11         24.1400    22.3990    42.2900 nb         1 UH2      -0.219000
     29 N18         23.6100    23.3130    50.5350 na         1 UH2      -0.309600
     30 N21         24.3210    21.1150    50.4790 nc         1 UH2      -0.546100
     31 N27         22.6070    21.1210    43.7660 na         1 UH2      -0.185400
     32 N9          25.7760    23.7630    43.4390 nb         1 UH2      -0.303000
     33 O30         22.4040    20.1980    40.3530 oh         1 UH2      -0.705000
     34 O32         20.7430    18.1990    40.8130 oh         1 UH2      -0.706000
     35 O34         20.9400    19.4220    43.4850 os         1 UH2      -0.454000
     36 S36         23.3660    16.0880    43.8990 ss         1 UH2      -0.461000
     37 H1          20.5360    13.6820    46.4690 hn         1 UH2       0.386000
     38 H2          20.1370    12.1210    46.5850 hn         1 UH2       0.386000
     39 H4          20.4350    12.7690    44.3290 h1         1 UH2      -0.002300
     40 H5          23.3220    13.3830    45.1260 hc         1 UH2       0.060700
     41 H6          22.7420    13.2840    43.4670 hc         1 UH2       0.060700
     42 H8          25.5770    23.5950    41.3720 h5         1 UH2       0.045100
     43 H9          24.9210    19.8800    52.9330 ha         1 UH2       0.132000
     44 H10         24.7030    21.0940    55.1210 ha         1 UH2       0.113000
     45 H11         23.9330    23.4720    55.1630 ha         1 UH2       0.109000
     46 H12         23.3760    24.6480    53.0130 ha         1 UH2       0.114000
     47 H13         21.7390    20.4810    45.6780 h4         1 UH2       0.236000
     48 H14         21.1130    21.1660    42.3540 h2         1 UH2       0.118700
     49 H15         23.5950    19.5170    41.9340 h1         1 UH2       0.049700
     50 H16         22.5810    17.4160    41.4230 h1         1 UH2       0.085700
     51 H17         20.6600    17.3650    43.3500 h1         1 UH2       0.105700
     52 H18         22.2490    17.8150    45.2140 h1         1 UH2       0.071700
     53 H19         23.4240    18.5090    44.0840 h1         1 UH2       0.071700
     54 H20         21.1120    15.1420    43.9090 h1         1 UH2       0.052200
     55 H21         21.7640    15.2970    45.5620 h1         1 UH2       0.052200
     56 H22         23.2840    24.2090    50.1990 hn         1 UH2       0.355000
     57 H24         26.4690    24.6740    45.6070 hn         1 UH2       0.498000
     58 H25         25.4070    23.7410    46.6110 hn         1 UH2       0.498000
     59 H26         23.0280    20.9640    40.3090 ho         1 UH2       0.518000
     60 H27         20.9570    18.9640    40.2180 ho         1 UH2       0.522000
     61 N7          25.8750    23.8560    45.7160 nv         1 UH2      -1.079900
@<TRIPOS>BOND
     1     1     2 1   
     2     1    37 1   
     3     1    38 1   
     4     2     3 1   
     5     2     5 1   
     6     2    39 1   
     7     3     4 1   
     8     3     6 1   
     9     5    26 1   
    10     5    40 1   
    11     5    41 1   
    12     7    28 ar  
    13     7    32 ar  
    14     7    42 1   
    15     8     9 ar  
    16     8    28 ar  
    17     8    31 1   
    18     9    10 1   
    19     9    27 ar  
    20    10    11 1   
    21    10    20 2   
    22    11    12 3   
    23    12    13 1   
    24    13    29 1   
    25    13    30 2   
    26    14    15 ar  
    27    14    19 ar  
    28    14    29 1   
    29    15    16 ar  
    30    15    30 1   
    31    16    17 ar  
    32    16    43 1   
    33    17    18 ar  
    34    17    44 1   
    35    18    19 ar  
    36    18    45 1   
    37    19    46 1   
    38    20    31 1   
    39    20    47 1   
    40    21    22 1   
    41    21    31 1   
    42    21    35 1   
    43    21    48 1   
    44    22    23 1   
    45    22    33 1   
    46    22    49 1   
    47    23    24 1   
    48    23    34 1   
    49    23    50 1   
    50    24    25 1   
    51    24    35 1   
    52    24    51 1   
    53    25    36 1   
    54    25    52 1   
    55    25    53 1   
    56    26    36 1   
    57    26    54 1   
    58    26    55 1   
    59    27    32 ar  
    60    27    61 1   
    61    29    56 1   
    62    33    59 1   
    63    34    60 1   
    64    57    61 1   
    65    58    61 1   
@<TRIPOS>SUBSTRUCTURE
     1 UH2         1 TEMP              0 ****  ****    0 ROOT
