@<TRIPOS>MOLECULE
UH2
   61    65     1     0     0
SMALL
abcg2


@<TRIPOS>ATOM
      1 N           19.0100    12.8680    44.3660 n8         1 UH2      -1.011200
      2 CA          20.0320    12.3580    43.4620 c3         1 UH2       0.021500
      3 C           19.9690    10.8070    43.3800 c          1 UH2       0.721000
      4 O           18.8890    10.2750    43.7090 o          1 UH2      -0.726000
      5 CB          21.4150    12.8530    43.8830 c3         1 UH2      -0.041400
      6 OXT         20.9860    10.2290    42.9540 o          1 UH2      -0.726000
      7 C10         22.5440    23.9190    42.7210 ca         1 UH2       0.178900
      8 C12         23.0530    22.0940    43.8490 ca         1 UH2       0.160500
      9 C13         23.2020    22.8010    45.0390 ca         1 UH2      -0.238800
     10 C14         23.5480    21.8450    46.0520 cc         1 UH2      -0.012900
     11 C15         23.7950    22.0800    47.4160 cg         1 UH2      -0.036300
     12 C16         24.0090    22.2990    48.5850 ch         1 UH2      -0.183200
     13 C17         24.2640    22.5500    49.9510 cd         1 UH2       0.496700
     14 C19         24.5880    23.7120    51.7840 ca         1 UH2      -0.078200
     15 C20         24.6720    22.3290    52.0250 ca         1 UH2       0.068400
     16 C22         24.9330    21.8620    53.3150 ca         1 UH2      -0.043000
     17 C23         25.1030    22.7970    54.3180 ca         1 UH2      -0.138000
     18 C24         25.0170    24.1750    54.0580 ca         1 UH2      -0.093000
     19 C25         24.7580    24.6590    52.7890 ca         1 UH2      -0.119000
     20 C26         23.5900    20.6230    45.4280 cd         1 UH2      -0.100100
     21 C28         23.2130    19.7090    43.1330 c5         1 UH2       0.271300
     22 C29         24.5070    18.9060    42.9530 c5         1 UH2       0.084300
     23 C31         23.9510    17.5830    42.4340 c5         1 UH2       0.155300
     24 C33         22.6850    17.4430    43.2720 c5         1 UH2       0.166300
     25 C35         22.8940    16.6880    44.5790 c3         1 UH2       0.029600
     26 C37         21.4800    14.3720    43.9140 c3         1 UH2       0.084600
     27 C8          22.9830    24.1910    44.9570 ca         1 UH2       0.436900
     28 N11         22.7260    22.6130    42.6680 nb         1 UH2      -0.219000
     29 N18         24.3260    23.8170    50.4480 na         1 UH2      -0.309600
     30 N21         24.4650    21.6310    50.8640 nc         1 UH2      -0.546100
     31 N27         23.3010    20.7730    44.1020 na         1 UH2      -0.185400
     32 N9          22.6520    24.7210    43.7750 nb         1 UH2      -0.303000
     33 O30         25.4130    19.4640    42.0530 oh         1 UH2      -0.705000
     34 O32         23.5760    17.6750    41.0830 oh         1 UH2      -0.706000
     35 O34         22.2550    18.7790    43.5600 os         1 UH2      -0.454000
     36 S36         23.1670    14.9150    44.3270 ss         1 UH2      -0.461000
     37 H1          18.6700    13.7650    44.0480 hn         1 UH2       0.386000
     38 H2          18.2280    12.2270    44.3300 hn         1 UH2       0.386000
     39 H4          19.8680    12.7080    42.4260 h1         1 UH2      -0.002300
     40 H5          21.6590    12.4550    44.8720 hc         1 UH2       0.060700
     41 H6          22.1600    12.4690    43.1850 hc         1 UH2       0.060700
     42 H8          22.2710    24.4040    41.7900 h5         1 UH2       0.045100
     43 H9          25.0000    20.8010    53.5170 ha         1 UH2       0.132000
     44 H10         25.3080    22.4660    55.3270 ha         1 UH2       0.113000
     45 H11         25.1580    24.8750    54.8710 ha         1 UH2       0.109000
     46 H12         24.6920    25.7210    52.5900 ha         1 UH2       0.114000
     47 H13         23.8030    19.6570    45.8570 h4         1 UH2       0.236000
     48 H14         22.9290    20.1810    42.1880 h2         1 UH2       0.118700
     49 H15         24.9680    18.7310    43.9350 h1         1 UH2       0.049700
     50 H16         24.6430    16.7510    42.6070 h1         1 UH2       0.085700
     51 H17         21.8990    16.9540    42.6900 h1         1 UH2       0.105700
     52 H18         22.0290    16.8220    45.2310 h1         1 UH2       0.071700
     53 H19         23.7660    17.0650    45.1190 h1         1 UH2       0.071700
     54 H20         21.1900    14.7800    42.9420 h1         1 UH2       0.052200
     55 H21         20.8020    14.7780    44.6670 h1         1 UH2       0.052200
     56 H22         24.1990    24.6660    49.9180 hn         1 UH2       0.355000
     57 H24         22.8900    25.9860    45.9030 hn         1 UH2       0.498000
     58 H25         23.2990    24.6640    46.9310 hn         1 UH2       0.498000
     59 H26         25.8520    20.2140    42.4680 ho         1 UH2       0.518000
     60 H27         24.3540    17.9050    40.5640 ho         1 UH2       0.522000
     61 N7          23.0960    25.0070    46.0080 nv         1 UH2      -1.079900
@<TRIPOS>BOND
     1     1     2 1   
     2     1    37 1   
     3     1    38 1   
     4     2     3 1   
     5     2     5 1   
     6     2    39 1   
     7     3     4 1   
     8     3     6 1   
     9     5    26 1   
    10     5    40 1   
    11     5    41 1   
    12     7    28 ar  
    13     7    32 ar  
    14     7    42 1   
    15     8     9 ar  
    16     8    28 ar  
    17     8    31 1   
    18     9    10 1   
    19     9    27 ar  
    20    10    11 1   
    21    10    20 2   
    22    11    12 3   
    23    12    13 1   
    24    13    29 1   
    25    13    30 2   
    26    14    15 ar  
    27    14    19 ar  
    28    14    29 1   
    29    15    16 ar  
    30    15    30 1   
    31    16    17 ar  
    32    16    43 1   
    33    17    18 ar  
    34    17    44 1   
    35    18    19 ar  
    36    18    45 1   
    37    19    46 1   
    38    20    31 1   
    39    20    47 1   
    40    21    22 1   
    41    21    31 1   
    42    21    35 1   
    43    21    48 1   
    44    22    23 1   
    45    22    33 1   
    46    22    49 1   
    47    23    24 1   
    48    23    34 1   
    49    23    50 1   
    50    24    25 1   
    51    24    35 1   
    52    24    51 1   
    53    25    36 1   
    54    25    52 1   
    55    25    53 1   
    56    26    36 1   
    57    26    54 1   
    58    26    55 1   
    59    27    32 ar  
    60    27    61 1   
    61    29    56 1   
    62    33    59 1   
    63    34    60 1   
    64    57    61 1   
    65    58    61 1   
@<TRIPOS>SUBSTRUCTURE
     1 UH2         1 TEMP              0 ****  ****    0 ROOT
