@<TRIPOS>MOLECULE
UH3
   32    34     1     0     0
SMALL
abcg2


@<TRIPOS>ATOM
      1 N1         -46.5630    10.9670    20.0070 ns         1 UH3      -0.391100
      2 C7         -46.4430    11.5580    18.7720 c          1 UH3       0.584200
      3 C8         -45.7420    12.8480    18.9950 cc         1 UH3      -0.192400
      4 N2         -45.5680    14.5370    14.5300 nc         1 UH3      -0.694000
      5 C9         -45.3950    13.7980    18.0810 cf         1 UH3       0.025800
      6 O1         -46.8640    11.0460    17.7300 o          1 UH3      -0.580000
      7 C1         -44.7630    13.6250    22.6140 ca         1 UH3      -0.178600
      8 C5         -45.9090    11.4890    22.3700 ca         1 UH3      -0.149000
      9 C6         -45.2770    12.4430    23.1600 ca         1 UH3      -0.024000
     10 N3         -46.1920    12.9030    15.8860 na         1 UH3      -0.271500
     11 C4         -46.0020    11.7420    21.0120 ca         1 UH3       0.075600
     12 C3         -45.4850    12.9170    20.4320 ca         1 UH3      -0.104800
     13 C2         -44.8690    13.8610    21.2370 ca         1 UH3      -0.037000
     14 N4         -43.9740    15.8640    23.1270 nt         1 UH3      -0.604000
     15 C10        -45.5820    13.8580    16.6820 cd         1 UH3      -0.253800
     16 C11        -45.2000    14.8750    15.7970 cc         1 UH3       0.314300
     17 C12        -46.1610    13.3450    14.6250 cd         1 UH3       0.431400
     18 C13        -44.4990    16.1520    16.1120 c3         1 UH3      -0.124400
     19 C14        -44.0970    14.5850    23.5460 c          1 UH3       0.614700
     20 O2         -43.6700    14.2240    24.6460 o          1 UH3      -0.608100
     21 H1         -46.9930    10.0640    20.1420 hn         1 UH3       0.345500
     22 H9         -44.8850    14.6690    18.4790 ha         1 UH3       0.186000
     23 H5         -46.3110    10.5810    22.8000 ha         1 UH3       0.128000
     24 H6         -45.1800    12.2800    24.2240 ha         1 UH3       0.142000
     25 H3         -46.5750    12.0360    16.2730 hn         1 UH3       0.407000
     26 H2         -44.4510    14.7550    20.7930 ha         1 UH3       0.113000
     27 H41        -43.5590    16.5360    23.7530 hn         1 UH3       0.314000
     28 H42        -44.4500    16.2120    22.3130 hn         1 UH3       0.314000
     29 H12        -46.5730    12.7870    13.7990 h5         1 UH3       0.062100
     30 H132       -44.3550    16.7270    15.1980 hc         1 UH3       0.051033
     31 H133       -45.0740    16.7580    16.8160 hc         1 UH3       0.051033
     32 H131       -43.5210    15.9680    16.5630 hc         1 UH3       0.051033
@<TRIPOS>BOND
     1     1     2 1   
     2     1    11 1   
     3     1    21 1   
     4     2     3 1   
     5     2     6 2   
     6     3     5 2   
     7     3    12 1   
     8     4    16 1   
     9     4    17 2   
    10     5    15 1   
    11     5    22 1   
    12     7     9 ar  
    13     7    13 ar  
    14     7    19 1   
    15     8     9 ar  
    16     8    11 ar  
    17     8    23 1   
    18     9    24 1   
    19    10    15 1   
    20    10    17 1   
    21    10    25 1   
    22    11    12 ar  
    23    12    13 ar  
    24    13    26 1   
    25    14    19 1   
    26    14    27 1   
    27    14    28 1   
    28    15    16 2   
    29    16    18 1   
    30    17    29 1   
    31    18    30 1   
    32    18    31 1   
    33    18    32 1   
    34    19    20 2   
@<TRIPOS>SUBSTRUCTURE
     1 UH3         1 TEMP              0 ****  ****    0 ROOT
