@<TRIPOS>MOLECULE
UH3
   32    34     1     0     0
SMALL
No Charge or Current Charge


@<TRIPOS>ATOM
      1 N1         -46.5050    10.9370    20.0040 ns         1 UH3      -0.391100
      2 C7         -46.4180    11.5010    18.7620 c          1 UH3       0.584200
      3 C8         -45.7560    12.8160    19.0220 cc         1 UH3      -0.192400
      4 N2         -45.5700    14.5890    14.5140 nc         1 UH3      -0.694000
      5 C9         -45.4250    13.7910    18.1140 cf         1 UH3       0.025800
      6 O1         -46.8090    10.9950    17.7190 o          1 UH3      -0.580000
      7 C1         -44.8280    13.6550    22.6680 ca         1 UH3      -0.178600
      8 C5         -45.9120    11.4530    22.4020 ca         1 UH3      -0.149000
      9 C6         -45.3250    12.4390    23.2210 ca         1 UH3      -0.024000
     10 N3         -46.1770    12.9100    15.8220 na         1 UH3      -0.271500
     11 C4         -45.9880    11.7110    21.0340 ca         1 UH3       0.075600
     12 C3         -45.5160    12.8790    20.4690 ca         1 UH3      -0.104800
     13 C2         -44.9270    13.8750    21.2650 ca         1 UH3      -0.037000
     14 N4         -43.7400    15.8280    23.0540 nt         1 UH3      -0.604000
     15 C10        -45.6060    13.8560    16.6570 cd         1 UH3      -0.253800
     16 C11        -45.2460    14.8740    15.8100 cc         1 UH3       0.314300
     17 C12        -46.1360    13.3900    14.5300 cd         1 UH3       0.431400
     18 C13        -44.5780    16.1730    16.1600 c3         1 UH3      -0.124400
     19 C14        -44.2070    14.6800    23.5900 c          1 UH3       0.614700
     20 O2         -44.1130    14.5110    24.7940 o          1 UH3      -0.608100
     21 H1         -46.9170    10.0240    20.1500 hn         1 UH3       0.345500
     22 H9         -44.9460    14.6660    18.5550 ha         1 UH3       0.186000
     23 H5         -46.2910    10.5250    22.8220 ha         1 UH3       0.128000
     24 H6         -45.2550    12.2570    24.2920 ha         1 UH3       0.142000
     25 H3         -46.5620    12.0110    16.1050 hn         1 UH3       0.407000
     26 H2         -44.5600    14.7890    20.8070 ha         1 UH3       0.113000
     27 H41        -43.3240    16.5180    23.6610 hn         1 UH3       0.314000
     28 H42        -43.8070    15.9910    22.0620 hn         1 UH3       0.314000
     29 H12        -46.5240    12.8320    13.6850 h5         1 UH3       0.062100
     30 H132       -44.4130    16.7930    15.2710 hc         1 UH3       0.051033
     31 H133       -45.1950    16.7470    16.8610 hc         1 UH3       0.051033
     32 H131       -43.6050    15.9920    16.6310 hc         1 UH3       0.051033
@<TRIPOS>BOND
     1     1     2 1   
     2     1    11 1   
     3     1    21 1   
     4     2     3 1   
     5     2     6 2   
     6     3     5 2   
     7     3    12 1   
     8     4    16 1   
     9     4    17 2   
    10     5    15 1   
    11     5    22 1   
    12     7     9 ar  
    13     7    13 ar  
    14     7    19 1   
    15     8     9 ar  
    16     8    11 ar  
    17     8    23 1   
    18     9    24 1   
    19    10    15 1   
    20    10    17 1   
    21    10    25 1   
    22    11    12 ar  
    23    12    13 ar  
    24    13    26 1   
    25    14    19 1   
    26    14    27 1   
    27    14    28 1   
    28    15    16 2   
    29    16    18 1   
    30    17    29 1   
    31    18    30 1   
    32    18    31 1   
    33    18    32 1   
    34    19    20 2   
@<TRIPOS>SUBSTRUCTURE
     1 UH3         1 TEMP              0 ****  ****    0 ROOT
