@<TRIPOS>MOLECULE
UH4
   27    28     1     0     0
SMALL
abcg2


@<TRIPOS>ATOM
      1 N1           7.1930    -0.1200    20.8800 ns         1 UH4      -0.150000
      2 C4          10.3640    -0.1790    22.5800 cc         1 UH4      -0.063400
      3 C5           8.4760     0.2780    21.1230 c          1 UH4       0.663100
      4 C6           6.3110     0.3570    19.9160 ca         1 UH4      -0.058000
      5 C7           5.0340    -0.2070    19.8850 ca         1 UH4      -0.139000
      6 C8           4.1200     0.2270    18.9460 ca         1 UH4      -0.134000
      7 C10          6.5970     1.3510    18.9740 ca         1 UH4       0.322900
      8 O            9.0650     1.1440    20.4980 o          1 UH4      -0.601100
      9 N            9.0660    -0.3930    22.1530 ns         1 UH4      -0.393100
     10 C3          10.9780    -0.8440    23.5980 cd         1 UH4      -0.202000
     11 C2          12.3170    -0.4070    23.8000 cd         1 UH4      -0.111000
     12 S           11.4190     0.9910    21.8600 ss         1 UH4       0.276000
     13 C1          12.7060     0.5750    22.9460 cc         1 UH4      -0.235300
     14 C           14.0210     1.2730    22.8590 c3         1 UH4      -0.016800
     15 N2           5.7100     1.7610    18.0760 nb         1 UH4      -0.645000
     16 C9           4.5020     1.2190    18.0550 ca         1 UH4       0.310900
     17 H1           6.8200    -0.8570    21.4600 hn         1 UH4       0.149000
     18 H2           4.7630    -0.9790    20.5960 ha         1 UH4       0.113000
     19 H3           3.1260    -0.1980    18.9070 ha         1 UH4       0.124000
     20 H4           7.5650     1.8270    18.9440 h4         1 UH4       0.056100
     21 H5           8.5490    -1.0940    22.6630 hn         1 UH4       0.321500
     22 H6          10.4940    -1.6170    24.1800 ha         1 UH4       0.128000
     23 H7          12.9670    -0.8190    24.5610 ha         1 UH4       0.130000
     24 H8          14.4780     1.1640    21.8740 hc         1 UH4       0.044700
     25 H9          13.9310     2.3420    23.0590 hc         1 UH4       0.044700
     26 H10         14.7090     0.8550    23.5920 hc         1 UH4       0.044700
     27 H11          3.8120     1.5850    17.3040 h4         1 UH4       0.023100
@<TRIPOS>BOND
     1     1     3 1   
     2     1     4 1   
     3     1    17 1   
     4     2     9 1   
     5     2    10 2   
     6     2    12 1   
     7     3     8 2   
     8     3     9 1   
     9     4     5 ar  
    10     4     7 ar  
    11     5     6 ar  
    12     5    18 1   
    13     6    16 ar  
    14     6    19 1   
    15     7    15 ar  
    16     7    20 1   
    17     9    21 1   
    18    10    11 1   
    19    10    22 1   
    20    11    13 2   
    21    11    23 1   
    22    12    13 1   
    23    13    14 1   
    24    14    24 1   
    25    14    25 1   
    26    14    26 1   
    27    15    16 ar  
    28    16    27 1   
@<TRIPOS>SUBSTRUCTURE
     1 UH4         1 TEMP              0 ****  ****    0 ROOT
