@<TRIPOS>MOLECULE
UH4
   27    28     1     0     0
SMALL
No Charge or Current Charge


@<TRIPOS>ATOM
      1 N1           7.2370     0.0030    20.7740 ns         1 UH4      -0.150000
      2 C4          10.4820    -0.0200    22.4540 cc         1 UH4      -0.063400
      3 C5           8.5370     0.4500    20.9540 c          1 UH4       0.663100
      4 C6           6.2250     0.3840    19.8470 ca         1 UH4      -0.058000
      5 C7           4.9820    -0.2720    19.9200 ca         1 UH4      -0.139000
      6 C8           3.9730     0.0920    19.0120 ca         1 UH4      -0.134000
      7 C10          6.3950     1.3840    18.8540 ca         1 UH4       0.322900
      8 O            9.0650     1.3240    20.2800 o          1 UH4      -0.601100
      9 N            9.1810    -0.2040    21.9890 ns         1 UH4      -0.393100
     10 C3          10.9750    -0.7560    23.5000 cd         1 UH4      -0.202000
     11 C2          12.3180    -0.4360    23.8390 cd         1 UH4      -0.111000
     12 S           11.7030     1.1140    21.8520 ss         1 UH4       0.276000
     13 C1          12.8650     0.5490    23.0550 cc         1 UH4      -0.235300
     14 C           14.2510     1.1300    23.1330 c3         1 UH4      -0.016800
     15 N2           5.4200     1.7350    17.9780 nb         1 UH4      -0.645000
     16 C9           4.2320     1.0950    18.0620 ca         1 UH4       0.310900
     17 H1           6.9500    -0.7260    21.4140 hn         1 UH4       0.149000
     18 H2           4.7990    -1.0470    20.6620 ha         1 UH4       0.113000
     19 H3           3.0000    -0.3920    19.0380 ha         1 UH4       0.124000
     20 H4           7.3290     1.9300    18.7420 h4         1 UH4       0.056100
     21 H5           8.6160    -0.9030    22.4550 hn         1 UH4       0.321500
     22 H6          10.3980    -1.5130    24.0230 ha         1 UH4       0.128000
     23 H7          12.8600    -0.9260    24.6440 ha         1 UH4       0.130000
     24 H8          14.7910     0.9800    22.1910 hc         1 UH4       0.044700
     25 H9          14.2110     2.2080    23.3330 hc         1 UH4       0.044700
     26 H10         14.8330     0.6600    23.9350 hc         1 UH4       0.044700
     27 H11          3.4650     1.3940    17.3480 h4         1 UH4       0.023100
@<TRIPOS>BOND
     1     1     3 1   
     2     1     4 1   
     3     1    17 1   
     4     2     9 1   
     5     2    10 2   
     6     2    12 1   
     7     3     8 2   
     8     3     9 1   
     9     4     5 ar  
    10     4     7 ar  
    11     5     6 ar  
    12     5    18 1   
    13     6    16 ar  
    14     6    19 1   
    15     7    15 ar  
    16     7    20 1   
    17     9    21 1   
    18    10    11 1   
    19    10    22 1   
    20    11    13 2   
    21    11    23 1   
    22    12    13 1   
    23    13    14 1   
    24    14    24 1   
    25    14    25 1   
    26    14    26 1   
    27    15    16 ar  
    28    16    27 1   
@<TRIPOS>SUBSTRUCTURE
     1 UH4         1 TEMP              0 ****  ****    0 ROOT
