@<TRIPOS>MOLECULE
UH5
   50    52     1     0     0
SMALL
bcc


@<TRIPOS>ATOM
      1 N1          17.7520    -9.3970    27.6740 na         1 UH5       0.104400
      2 C7          16.8050   -11.4140    26.5920 c6         1 UH5       0.143100
      3 C8          17.7020   -10.1850    26.4540 c6         1 UH5       0.044000
      4 N2          18.6460    -8.7370    29.4700 nc         1 UH5      -0.356000
      5 C9          16.8430    -8.5700    28.2210 cd         1 UH5      -0.221600
      6 O1          15.8930    -9.0120    25.3650 os         1 UH5      -0.422600
      7 C1          17.7790   -10.1950    21.7530 c3         1 UH5      -0.079400
      8 C5          13.6010    -9.5750    25.4180 c3         1 UH5       0.141400
      9 C6          15.3280   -11.0390    26.5870 c6         1 UH5       0.079100
     10 N3          18.8280    -9.4830    28.4420 nd         1 UH5      -0.188800
     11 C4          15.0090   -10.1270    25.3950 c6         1 UH5       0.120100
     12 C3          17.2520    -9.3210    25.2730 c6         1 UH5       0.326900
     13 O3          14.6040   -12.2460    26.4950 oh         1 UH5      -0.604800
     14 N           17.1940   -12.1750    20.4380 n8         1 UH5      -0.885800
     15 C           16.8570   -11.4000    21.6220 c3         1 UH5       0.152800
     16 O           17.5680   -10.0270    24.1250 os         1 UH5      -0.435600
     17 C10         17.4320    -8.1450    29.3890 cc         1 UH5       0.314800
     18 C11         16.9270    -7.2250    30.4050 ca         1 UH5      -0.100500
     19 C12         17.6550    -6.9890    31.5730 ca         1 UH5      -0.112000
     20 C13         17.1790    -6.1110    32.5350 ca         1 UH5      -0.133000
     21 C14         15.9700    -5.4530    32.3480 ca         1 UH5      -0.128000
     22 C15         15.2400    -5.6830    31.1900 ca         1 UH5      -0.133000
     23 C16         15.7130    -6.5600    30.2270 ca         1 UH5      -0.112000
     24 O2          13.4020    -8.8450    26.6050 oh         1 UH5      -0.597800
     25 H15         16.9910   -12.0320    25.7010 h1         1 UH5       0.067700
     26 H17         18.7320   -10.5030    26.2850 h1         1 UH5       0.121700
     27 H18         15.8930    -8.3440    27.7700 h4         1 UH5       0.206000
     28 H5          18.8180   -10.5260    21.8330 hc         1 UH5       0.059200
     29 H4          17.7130    -9.5880    20.8450 hc         1 UH5       0.059200
     30 H10         13.4590    -8.9510    24.5260 h1         1 UH5       0.032200
     31 H11         12.9020   -10.4150    25.3270 h1         1 UH5       0.032200
     32 H13         15.0890   -10.5250    27.5260 h1         1 UH5       0.073700
     33 H9          15.1040   -10.7200    24.4750 h1         1 UH5       0.063700
     34 H8          17.7700    -8.3520    25.2990 h2         1 UH5       0.089700
     35 H14         13.7520   -12.1380    26.9260 ho         1 UH5       0.415000
     36 H7          18.0770    -8.4150    22.9340 h1         1 UH5       0.034200
     37 H6          16.3940    -8.9340    22.8000 h1         1 UH5       0.034200
     38 H24         16.6170   -13.0050    20.4020 hn         1 UH5       0.337300
     39 H1          16.9570   -11.6410    19.6100 hn         1 UH5       0.337300
     40 H3          15.8140   -11.0480    21.6370 h1         1 UH5       0.030200
     41 H2          16.9740   -12.0460    22.4940 h1         1 UH5       0.030200
     42 H19         18.5980    -7.4950    31.7310 ha         1 UH5       0.139500
     43 H20         17.7560    -5.9410    33.4340 ha         1 UH5       0.128000
     44 H21         15.6010    -4.7670    33.0990 ha         1 UH5       0.128000
     45 H22         14.2970    -5.1760    31.0320 ha         1 UH5       0.128000
     46 H23         15.1290    -6.7210    29.3290 ha         1 UH5       0.139500
     47 H12         12.4880    -8.5480    26.6320 ho         1 UH5       0.410000
     48 O4          17.1730   -12.0920    27.7620 oh         1 UH5      -0.575800
     49 C2          17.4220    -9.2950    22.9150 c3         1 UH5       0.141400
     50 H16         16.6220   -12.8790    27.8310 ho         1 UH5       0.422000
@<TRIPOS>BOND
     1     1     3 1   
     2     1     5 1   
     3     1    10 1   
     4     2     3 1   
     5     2     9 1   
     6     2    25 1   
     7     2    48 1   
     8     3    12 1   
     9     3    26 1   
    10     4    10 2   
    11     4    17 1   
    12     5    17 2   
    13     5    27 1   
    14     6    11 1   
    15     6    12 1   
    16     7    15 1   
    17     7    28 1   
    18     7    29 1   
    19     7    49 1   
    20     8    11 1   
    21     8    24 1   
    22     8    30 1   
    23     8    31 1   
    24     9    11 1   
    25     9    13 1   
    26     9    32 1   
    27    11    33 1   
    28    12    16 1   
    29    12    34 1   
    30    13    35 1   
    31    14    15 1   
    32    14    38 1   
    33    14    39 1   
    34    15    40 1   
    35    15    41 1   
    36    16    49 1   
    37    17    18 1   
    38    18    19 ar  
    39    18    23 ar  
    40    19    20 ar  
    41    19    42 1   
    42    20    21 ar  
    43    20    43 1   
    44    21    22 ar  
    45    21    44 1   
    46    22    23 ar  
    47    22    45 1   
    48    23    46 1   
    49    24    47 1   
    50    36    49 1   
    51    37    49 1   
    52    48    50 1   
@<TRIPOS>SUBSTRUCTURE
     1 UH5         1 TEMP              0 ****  ****    0 ROOT
