@<TRIPOS>MOLECULE
UH5
   50    52     1     0     0
SMALL
No Charge or Current Charge


@<TRIPOS>ATOM
      1 N1          17.8960    -9.5460    27.8260 na         1 UH5       0.125800
      2 C7          16.8390   -11.5280    26.6220 c6         1 UH5       0.166300
      3 C8          17.8000   -10.3040    26.5500 c6         1 UH5       0.073300
      4 N2          18.8000    -8.8290    29.6580 nc         1 UH5      -0.356000
      5 C9          16.9770    -8.6530    28.3430 cd         1 UH5      -0.189000
      6 O1          15.9980    -9.0330    25.4400 os         1 UH5      -0.469000
      7 C1          17.7730   -10.1290    21.7060 c3         1 UH5      -0.079400
      8 C5          13.6200    -9.5620    25.4350 c3         1 UH5       0.164600
      9 C6          15.3450   -11.0930    26.6490 c6         1 UH5       0.102300
     10 N3          19.0030    -9.6270    28.6390 nd         1 UH5      -0.188800
     11 C4          15.0690   -10.1520    25.4310 c6         1 UH5       0.143300
     12 C3          17.4000    -9.3830    25.3680 c6         1 UH5       0.373300
     13 O3          14.4970   -12.2650    26.6380 oh         1 UH5      -0.727000
     14 N           17.0430   -12.0950    20.3510 n8         1 UH5      -0.996200
     15 C           16.7720   -11.2940    21.5610 c3         1 UH5       0.152800
     16 O           17.6550   -10.0370    24.1110 os         1 UH5      -0.482000
     17 C10         17.5790    -8.2440    29.4910 cc         1 UH5       0.249500
     18 C11         16.9730    -7.2600    30.4030 ca         1 UH5      -0.100500
     19 C12         17.7390    -6.7040    31.4540 ca         1 UH5      -0.094000
     20 C13         17.1720    -5.7780    32.3460 ca         1 UH5      -0.115000
     21 C14         15.8280    -5.3990    32.2080 ca         1 UH5      -0.110000
     22 C15         15.0500    -5.9520    31.1790 ca         1 UH5      -0.115000
     23 C16         15.6160    -6.8780    30.2850 ca         1 UH5      -0.094000
     24 O2          13.3330    -8.7510    26.5930 oh         1 UH5      -0.720000
     25 H15         16.9860   -12.1070    25.6970 h1         1 UH5       0.067700
     26 H17         18.8040   -10.6870    26.3290 h1         1 UH5       0.121700
     27 H18         16.0370    -8.3910    27.8790 h4         1 UH5       0.188000
     28 H5          18.7930   -10.5250    21.7770 hc         1 UH5       0.059200
     29 H4          17.7340    -9.5040    20.8060 hc         1 UH5       0.059200
     30 H10         13.5050    -8.9620    24.5220 h1         1 UH5       0.032200
     31 H11         12.9030   -10.3900    25.3640 h1         1 UH5       0.032200
     32 H13         15.1690   -10.5210    27.5720 h1         1 UH5       0.073700
     33 H9          15.2000   -10.7170    24.4970 h1         1 UH5       0.063700
     34 H8          18.0070    -8.4650    25.4210 h2         1 UH5       0.089700
     35 H14         13.6000   -11.9810    26.9360 ho         1 UH5       0.514000
     36 H7          18.1970    -8.3930    22.9340 h1         1 UH5       0.034200
     37 H6          16.4740    -8.8330    22.8610 h1         1 UH5       0.034200
     38 H24         16.3260   -12.8260    20.2660 hn         1 UH5       0.392500
     39 H1          16.8890   -11.5110    19.5210 hn         1 UH5       0.392500
     40 H3          15.7490   -10.8980    21.5010 h1         1 UH5       0.030200
     41 H2          16.8380   -11.9520    22.4390 h1         1 UH5       0.030200
     42 H19         18.7820    -6.9840    31.5810 ha         1 UH5       0.121500
     43 H20         17.7760    -5.3550    33.1460 ha         1 UH5       0.110000
     44 H21         15.3880    -4.6830    32.9000 ha         1 UH5       0.110000
     45 H22         14.0060    -5.6650    31.0740 ha         1 UH5       0.110000
     46 H23         14.9830    -7.2970    29.5060 ha         1 UH5       0.121500
     47 H12         12.4690    -8.3060    26.4250 ho         1 UH5       0.509000
     48 O4          17.1160   -12.3750    27.7500 oh         1 UH5      -0.638000
     49 C2          17.4930    -9.2360    22.9290 c3         1 UH5       0.164600
     50 H16         16.3190   -12.9480    27.8300 ho         1 UH5       0.461000
@<TRIPOS>BOND
     1     1     3 1   
     2     1     5 1   
     3     1    10 1   
     4     2     3 1   
     5     2     9 1   
     6     2    25 1   
     7     2    48 1   
     8     3    12 1   
     9     3    26 1   
    10     4    10 2   
    11     4    17 1   
    12     5    17 2   
    13     5    27 1   
    14     6    11 1   
    15     6    12 1   
    16     7    15 1   
    17     7    28 1   
    18     7    29 1   
    19     7    49 1   
    20     8    11 1   
    21     8    24 1   
    22     8    30 1   
    23     8    31 1   
    24     9    11 1   
    25     9    13 1   
    26     9    32 1   
    27    11    33 1   
    28    12    16 1   
    29    12    34 1   
    30    13    35 1   
    31    14    15 1   
    32    14    38 1   
    33    14    39 1   
    34    15    40 1   
    35    15    41 1   
    36    16    49 1   
    37    17    18 1   
    38    18    19 ar  
    39    18    23 ar  
    40    19    20 ar  
    41    19    42 1   
    42    20    21 ar  
    43    20    43 1   
    44    21    22 ar  
    45    21    44 1   
    46    22    23 ar  
    47    22    45 1   
    48    23    46 1   
    49    24    47 1   
    50    36    49 1   
    51    37    49 1   
    52    48    50 1   
@<TRIPOS>SUBSTRUCTURE
     1 UH5         1 TEMP              0 ****  ****    0 ROOT
