@<TRIPOS>MOLECULE
UH7
   31    32     1     0     0
SMALL
No Charge or Current Charge


@<TRIPOS>ATOM
      1 N1           8.1810     0.7640    21.1890 ns         1 UH7      -0.163000
      2 C4           7.5800     2.1770    19.2130 ca         1 UH7       0.347900
      3 C5           7.4250     1.0080    20.0030 ca         1 UH7      -0.092000
      4 C6           9.2640     1.4260    21.7530 c          1 UH7       0.603100
      5 C7           9.7680     0.8070    23.0620 c3         1 UH7      -0.114100
      6 C8          10.9850    -0.0760    22.8050 ca         1 UH7      -0.067300
      7 C10         13.4050    -0.3440    22.6130 ca         1 UH7      -0.100000
      8 C13         10.8200    -1.4420    22.5020 ca         1 UH7      -0.096000
      9 C12         11.9410    -2.2530    22.2580 ca         1 UH7       0.120000
     10 C11         13.2340    -1.7070    22.3130 ca         1 UH7      -0.096000
     11 C9          12.2840     0.4690    22.8570 ca         1 UH7      -0.081000
     12 O            9.8050     2.4040    21.2520 o          1 UH7      -0.563100
     13 C1           6.4690     0.0500    19.5950 ca         1 UH7      -0.068300
     14 C            6.2320    -1.2350    20.3830 c3         1 UH7      -0.051800
     15 N            6.8630     2.4180    18.0890 nb         1 UH7      -0.652000
     16 C3           5.9570     1.4920    17.7080 ca         1 UH7       0.326900
     17 C2           5.7300     0.3080    18.4260 ca         1 UH7      -0.151000
     18 H1           7.8700    -0.0430    21.7140 hn         1 UH7       0.152000
     19 H2           8.2850     2.9600    19.4790 h4         1 UH7       0.038100
     20 H3          10.0390     1.6150    23.7520 hc         1 UH7       0.066200
     21 H4           8.9760     0.1970    23.5120 hc         1 UH7       0.066200
     22 H5          14.4050     0.0820    22.6550 ha         1 UH7       0.120000
     23 H6           9.8260    -1.8790    22.4560 ha         1 UH7       0.125000
     24 H7          14.0990    -2.3370    22.1230 ha         1 UH7       0.130000
     25 H8          12.4260     1.5230    23.0850 ha         1 UH7       0.121000
     26 H9           7.1520    -1.8280    20.4570 hc         1 UH7       0.046367
     27 H10          5.8860    -1.0170    21.4000 hc         1 UH7       0.046367
     28 H11          5.4740    -1.8680    19.9070 hc         1 UH7       0.046367
     29 H12          5.3940     1.7080    16.8010 h4         1 UH7       0.021100
     30 H13          4.9850    -0.3970    18.0690 ha         1 UH7       0.122000
     31 Cl          11.7250    -3.9570    21.8800 cl         1 UH7      -0.205000
@<TRIPOS>BOND
     1     1     3 1   
     2     1     4 1   
     3     1    18 1   
     4     2     3 ar  
     5     2    15 ar  
     6     2    19 1   
     7     3    13 ar  
     8     4     5 1   
     9     4    12 2   
    10     5     6 1   
    11     5    20 1   
    12     5    21 1   
    13     6     8 ar  
    14     6    11 ar  
    15     7    10 ar  
    16     7    11 ar  
    17     7    22 1   
    18     8     9 ar  
    19     8    23 1   
    20     9    10 ar  
    21     9    31 1   
    22    10    24 1   
    23    11    25 1   
    24    13    14 1   
    25    13    17 ar  
    26    14    26 1   
    27    14    27 1   
    28    14    28 1   
    29    15    16 ar  
    30    16    17 ar  
    31    16    29 1   
    32    17    30 1   
@<TRIPOS>SUBSTRUCTURE
     1 UH7         1 TEMP              0 ****  ****    0 ROOT
