@<TRIPOS>MOLECULE
UH7
   31    32     1     0     0
SMALL
abcg2


@<TRIPOS>ATOM
      1 N1           8.0110    -0.2620    20.7430 ns         1 UH7      -0.163000
      2 C4           7.9230     0.7760    18.5410 ca         1 UH7       0.347900
      3 C5           7.2980     0.3950    19.7250 ca         1 UH7      -0.092000
      4 C6           9.1950     0.1570    21.2560 c          1 UH7       0.603100
      5 C7           9.6740    -0.6620    22.4420 c3         1 UH7      -0.114100
      6 C8          11.1680    -0.6490    22.5680 ca         1 UH7      -0.067300
      7 C10         13.2090     0.4130    23.2890 ca         1 UH7      -0.100000
      8 C13         11.9160    -1.6900    22.0270 ca         1 UH7      -0.096000
      9 C12         13.2990    -1.6640    22.1250 ca         1 UH7       0.120000
     10 C11         13.9620    -0.6210    22.7510 ca         1 UH7      -0.096000
     11 C9          11.8250     0.4030    23.1980 ca         1 UH7      -0.081000
     12 O            9.8060     1.1170    20.8300 o          1 UH7      -0.563100
     13 C1           5.9340     0.6500    19.8870 ca         1 UH7      -0.068300
     14 C            5.2110     0.2630    21.1380 c3         1 UH7      -0.051800
     15 N            7.2940     1.3950    17.5530 nb         1 UH7      -0.652000
     16 C3           5.9980     1.6410    17.7020 ca         1 UH7       0.326900
     17 C2           5.2850     1.2830    18.8340 ca         1 UH7      -0.151000
     18 H1           7.5530    -1.0370    21.1980 hn         1 UH7       0.152000
     19 H2           8.9730     0.5630    18.3890 h4         1 UH7       0.038100
     20 H3           9.2140    -0.2270    23.3350 hc         1 UH7       0.066200
     21 H4           9.3020    -1.6860    22.3730 hc         1 UH7       0.066200
     22 H5          13.7120     1.2340    23.7830 ha         1 UH7       0.120000
     23 H6          11.4210    -2.5170    21.5360 ha         1 UH7       0.125000
     24 H7          15.0410    -0.6150    22.8230 ha         1 UH7       0.130000
     25 H8          11.2530     1.2140    23.6300 ha         1 UH7       0.121000
     26 H9           5.1810    -0.8210    21.2650 hc         1 UH7       0.046367
     27 H10          5.7000     0.6770    22.0210 hc         1 UH7       0.046367
     28 H11          4.1830     0.6180    21.1200 hc         1 UH7       0.046367
     29 H12          5.4990     2.1430    16.8810 h4         1 UH7       0.021100
     30 H13          4.2290     1.5080    18.9000 ha         1 UH7       0.122000
     31 CL          14.2160    -2.9720    21.4470 cl         1 UH7      -0.205000
@<TRIPOS>BOND
     1     1     3 1   
     2     1     4 1   
     3     1    18 1   
     4     2     3 ar  
     5     2    15 ar  
     6     2    19 1   
     7     3    13 ar  
     8     4     5 1   
     9     4    12 2   
    10     5     6 1   
    11     5    20 1   
    12     5    21 1   
    13     6     8 ar  
    14     6    11 ar  
    15     7    10 ar  
    16     7    11 ar  
    17     7    22 1   
    18     8     9 ar  
    19     8    23 1   
    20     9    10 ar  
    21     9    31 1   
    22    10    24 1   
    23    11    25 1   
    24    13    14 1   
    25    13    17 ar  
    26    14    26 1   
    27    14    27 1   
    28    14    28 1   
    29    15    16 ar  
    30    16    17 ar  
    31    16    29 1   
    32    17    30 1   
@<TRIPOS>SUBSTRUCTURE
     1 UH7         1 TEMP              0 ****  ****    0 ROOT
