@<TRIPOS>MOLECULE
UH8
   41    43     1     0     0
SMALL
abcg2


@<TRIPOS>ATOM
      1 C1          15.2170   -10.0790    25.1840 c6         1 UH8       0.171300
      2 C2          17.4450    -9.2040    25.2050 c6         1 UH8       0.376300
      3 C3          17.7570    -9.1810    22.8720 c3         1 UH8       0.150900
      4 C4          17.8350   -10.0540    26.4150 c6         1 UH8       0.034300
      5 C5          16.8050    -8.4390    28.0880 cc         1 UH8      -0.177000
      6 C6          17.2560    -8.0480    29.3260 cd         1 UH8       0.248500
      7 C7          16.6470    -7.1350    30.2860 ca         1 UH8      -0.151500
      8 N           17.7570    -9.2770    27.6400 na         1 UH8       0.126800
      9 C           13.7980    -9.5530    25.1280 c3         1 UH8       0.171600
     10 O           13.5220    -8.8230    26.3000 oh         1 UH8      -0.723000
     11 C10         14.9860    -5.5320    30.9240 ca         1 UH8      -0.168000
     12 C11         15.5180    -6.3830    29.9710 ca         1 UH8      -0.071000
     13 C12         16.9690   -11.3220    26.4820 c6         1 UH8       0.127300
     14 C13         15.4850   -10.9860    26.3890 c6         1 UH8       0.149300
     15 C8          17.1810    -6.9800    31.5660 ca         1 UH8       0.361900
     16 C9          15.6010    -5.4550    32.1640 ca         1 UH8       0.333900
     17 N1          16.6780    -6.1640    32.4810 nb         1 UH8      -0.668000
     18 N2          18.4360    -8.6720    29.5480 nd         1 UH8      -0.348000
     19 N3          18.7270    -9.4040    28.5350 nc         1 UH8      -0.204800
     20 O1          16.0740    -8.9440    25.1970 os         1 UH8      -0.472000
     21 O2          17.8750    -9.8980    24.0860 os         1 UH8      -0.480000
     22 O3          17.1710   -12.0330    27.6730 oh         1 UH8      -0.649000
     23 O4          14.7160   -12.1480    26.2000 oh         1 UH8      -0.720000
     24 H           15.3780   -10.6690    24.2710 h1         1 UH8       0.063700
     25 H1          17.9230    -8.2160    25.2650 h2         1 UH8       0.087700
     26 H9          18.2870    -9.7510    22.1110 h1         1 UH8       0.040033
     27 H8          16.7180    -9.0630    22.5560 h1         1 UH8       0.040033
     28 H10         18.2140    -8.1890    22.9460 h1         1 UH8       0.040033
     29 H2          18.8860   -10.3340    26.3260 h1         1 UH8       0.106700
     30 H11         15.9170    -8.1910    27.5350 h4         1 UH8       0.194000
     31 H6          13.7000    -8.9320    24.2290 h1         1 UH8       0.038200
     32 H7          13.1200   -10.4040    25.0020 h1         1 UH8       0.038200
     33 H5          12.6090    -8.5250    26.2660 ho         1 UH8       0.508000
     34 H14         14.1100    -4.9350    30.7090 ha         1 UH8       0.121000
     35 H15         15.0590    -6.4520    28.9930 ha         1 UH8       0.118000
     36 H3          17.2330   -11.9280    25.6060 h1         1 UH8       0.067700
     37 H4          15.1820   -10.4700    27.3100 h1         1 UH8       0.073700
     38 H12         18.0580    -7.5470    31.8590 h4         1 UH8       0.039100
     39 H13         15.2090    -4.7950    32.9310 h4         1 UH8       0.017100
     40 H16         18.0140   -12.4950    27.6270 ho         1 UH8       0.460000
     41 H17         14.7780   -12.6860    26.9960 ho         1 UH8       0.526000
@<TRIPOS>BOND
     1     1     9 1   
     2     1    14 1   
     3     1    20 1   
     4     1    24 1   
     5     2     4 1   
     6     2    20 1   
     7     2    21 1   
     8     2    25 1   
     9     3    21 1   
    10     3    26 1   
    11     3    27 1   
    12     3    28 1   
    13     4     8 1   
    14     4    13 1   
    15     4    29 1   
    16     5     6 2   
    17     5     8 1   
    18     5    30 1   
    19     6     7 1   
    20     6    18 1   
    21     7    12 ar  
    22     7    15 ar  
    23     8    19 1   
    24     9    10 1   
    25     9    31 1   
    26     9    32 1   
    27    10    33 1   
    28    11    12 ar  
    29    11    16 ar  
    30    11    34 1   
    31    12    35 1   
    32    13    14 1   
    33    13    22 1   
    34    13    36 1   
    35    14    23 1   
    36    14    37 1   
    37    15    17 ar  
    38    15    38 1   
    39    16    17 ar  
    40    16    39 1   
    41    18    19 2   
    42    22    40 1   
    43    23    41 1   
@<TRIPOS>SUBSTRUCTURE
     1 UH8         1 TEMP              0 ****  ****    0 ROOT
