@<TRIPOS>MOLECULE
UH8
   41    43     1     0     0
SMALL
No Charge or Current Charge


@<TRIPOS>ATOM
      1 C1          15.1930   -10.0580    25.1630 c6         1 UH8       0.171300
      2 C2          17.5050    -9.2370    25.2530 c6         1 UH8       0.376300
      3 C3          17.7760    -9.0890    22.8270 c3         1 UH8       0.150900
      4 C4          17.8410   -10.1450    26.4680 c6         1 UH8       0.034300
      5 C5          16.8540    -8.5170    28.1880 cc         1 UH8      -0.177000
      6 C6          17.3310    -8.0780    29.3900 cd         1 UH8       0.248500
      7 C7          16.6860    -7.1300    30.3130 ca         1 UH8      -0.151500
      8 N           17.8310    -9.3820    27.7450 na         1 UH8       0.126800
      9 C           13.7320    -9.5030    25.0900 c3         1 UH8       0.171600
     10 O           13.3890    -8.6190    26.1810 oh         1 UH8      -0.723000
     11 C10         14.8720    -5.6590    30.9400 ca         1 UH8      -0.168000
     12 C11         15.4320    -6.5560    30.0170 ca         1 UH8      -0.071000
     13 C12         16.9120   -11.3990    26.4830 c6         1 UH8       0.127300
     14 C13         15.4110   -10.9990    26.3900 c6         1 UH8       0.149300
     15 C8          17.3120    -6.7710    31.5260 ca         1 UH8       0.361900
     16 C9          15.5700    -5.3620    32.1210 ca         1 UH8       0.333900
     17 N1          16.7720    -5.9050    32.4180 nb         1 UH8      -0.668000
     18 N2          18.5540    -8.6620    29.6350 nd         1 UH8      -0.348000
     19 N3          18.8600    -9.4480    28.6400 nc         1 UH8      -0.204800
     20 O1          16.0960    -8.9180    25.2250 os         1 UH8      -0.472000
     21 O2          17.8650    -9.8880    24.0200 os         1 UH8      -0.480000
     22 O3          17.1270   -12.2280    27.6460 oh         1 UH8      -0.649000
     23 O4          14.6080   -12.1940    26.3070 oh         1 UH8      -0.720000
     24 H           15.3890   -10.6190    24.2370 h1         1 UH8       0.063700
     25 H1          18.0860    -8.3050    25.3450 h2         1 UH8       0.087700
     26 H9          18.0920    -9.6730    21.9530 h1         1 UH8       0.040033
     27 H8          16.7460    -8.7520    22.6550 h1         1 UH8       0.040033
     28 H10         18.4230    -8.2060    22.8990 h1         1 UH8       0.040033
     29 H2          18.8700   -10.4950    26.3170 h1         1 UH8       0.106700
     30 H11         15.9460    -8.2890    27.6490 h4         1 UH8       0.194000
     31 H6          13.6280    -8.9710    24.1340 h1         1 UH8       0.038200
     32 H7          13.0380   -10.3530    25.0570 h1         1 UH8       0.038200
     33 H5          12.4840    -8.2740    25.9980 ho         1 UH8       0.508000
     34 H14         13.9080    -5.1950    30.7480 ha         1 UH8       0.121000
     35 H15         14.9000    -6.7930    29.0980 ha         1 UH8       0.118000
     36 H3          17.1470   -11.9810    25.5780 h1         1 UH8       0.067700
     37 H4          15.1440   -10.4420    27.3000 h1         1 UH8       0.073700
     38 H12         18.2810    -7.1860    31.8030 h4         1 UH8       0.039100
     39 H13         15.1550    -4.6690    32.8520 h4         1 UH8       0.017100
     40 H16         18.0640   -12.5270    27.6300 ho         1 UH8       0.460000
     41 H17         15.0170   -12.8160    26.9570 ho         1 UH8       0.526000
@<TRIPOS>BOND
     1     1     9 1   
     2     1    14 1   
     3     1    20 1   
     4     1    24 1   
     5     2     4 1   
     6     2    20 1   
     7     2    21 1   
     8     2    25 1   
     9     3    21 1   
    10     3    26 1   
    11     3    27 1   
    12     3    28 1   
    13     4     8 1   
    14     4    13 1   
    15     4    29 1   
    16     5     6 2   
    17     5     8 1   
    18     5    30 1   
    19     6     7 1   
    20     6    18 1   
    21     7    12 ar  
    22     7    15 ar  
    23     8    19 1   
    24     9    10 1   
    25     9    31 1   
    26     9    32 1   
    27    10    33 1   
    28    11    12 ar  
    29    11    16 ar  
    30    11    34 1   
    31    12    35 1   
    32    13    14 1   
    33    13    22 1   
    34    13    36 1   
    35    14    23 1   
    36    14    37 1   
    37    15    17 ar  
    38    15    38 1   
    39    16    17 ar  
    40    16    39 1   
    41    18    19 2   
    42    22    40 1   
    43    23    41 1   
@<TRIPOS>SUBSTRUCTURE
     1 UH8         1 TEMP              0 ****  ****    0 ROOT
