@<TRIPOS>MOLECULE
UH9
   39    40     1     0     0
SMALL
No Charge or Current Charge


@<TRIPOS>ATOM
      1 C14         26.9380    11.3800    20.7530 ca         1 UH9      -0.166000
      2 C15         27.0920    10.8190    22.0280 ca         1 UH9       0.141000
      3 C16         26.3290    11.2870    23.1100 ca         1 UH9      -0.121000
      4 C13         26.0100    12.4160    20.5560 ca         1 UH9      -0.105000
      5 C12         25.2430    12.8900    21.6360 ca         1 UH9      -0.085000
      6 C11         25.4000    12.3360    22.9280 ca         1 UH9      -0.105300
      7 C4          23.3490    15.0170    28.0780 ca         1 UH9      -0.202000
      8 C5          24.3720    15.9690    27.9440 ca         1 UH9      -0.133000
      9 C2          21.5300    12.6980    27.6640 c3         1 UH9       0.099600
     10 O1          23.2410    11.0980    26.9840 o          1 UH9      -0.726100
     11 C1          22.4700    11.9930    26.6520 c          1 UH9       0.556100
     12 O2          21.2630    14.0660    27.2870 os         1 UH9      -0.320100
     13 C3          22.2750    14.9950    27.1630 ca         1 UH9       0.145100
     14 C6          24.3270    16.9010    26.8970 ca         1 UH9      -0.178000
     15 C7          23.2620    16.8800    25.9800 ca         1 UH9      -0.055000
     16 C8          22.2300    15.9270    26.1070 ca         1 UH9      -0.153500
     17 P1          20.8800    15.8590    24.8670 p5         1 UH9       1.207000
     18 O3          21.2100    16.7410    23.7090 o          1 UH9      -0.885500
     19 O4          20.7270    14.4410    24.4260 o          1 UH9      -0.885500
     20 O5          19.6170    16.3250    25.5130 o          1 UH9      -0.885500
     21 N1          22.3770    12.4170    25.3430 ns         1 UH9      -0.497900
     22 C9          23.2620    11.9880    24.2490 c3         1 UH9       0.072000
     23 C10         24.5550    12.8380    24.1060 c3         1 UH9       0.203300
     24 F1          24.2080    14.1370    23.9450 f          1 UH9      -0.097500
     25 F2          25.2570    12.7870    25.2630 f          1 UH9      -0.097500
     26 F3          27.9790     9.8180    22.2170 f          1 UH9      -0.201000
     27 H1          27.5320    11.0110    19.9200 ha         1 UH9       0.109000
     28 H2          26.4630    10.8300    24.0870 ha         1 UH9       0.146000
     29 H3          25.8820    12.8520    19.5680 ha         1 UH9       0.106000
     30 H4          24.5240    13.6880    21.4630 ha         1 UH9       0.155000
     31 H7          20.5890    12.1340    27.6820 h1         1 UH9       0.038700
     32 H8          21.9750    12.6390    28.6640 h1         1 UH9       0.038700
     33 H9          25.1190    17.6370    26.7910 ha         1 UH9       0.067000
     34 H10         23.2440    17.6000    25.1640 ha         1 UH9       0.131000
     35 H13         21.7040    13.1720    25.1480 hn         1 UH9       0.445500
     36 H14         22.6960    12.0470    23.3100 h1         1 UH9       0.049700
     37 H15         23.5360    10.9350    24.3970 h1         1 UH9       0.049700
     38 H5          23.3930    14.3120    28.9020 ha         1 UH9       0.078000
     39 H6          25.1970    15.9860    28.6520 ha         1 UH9       0.061000
@<TRIPOS>BOND
     1     1     2 ar  
     2     1     4 ar  
     3     1    27 1   
     4     2     3 ar  
     5     2    26 1   
     6     3     6 ar  
     7     3    28 1   
     8     4     5 ar  
     9     4    29 1   
    10     5     6 ar  
    11     5    30 1   
    12     6    23 1   
    13     7     8 ar  
    14     7    13 ar  
    15     7    38 1   
    16     8    14 ar  
    17     8    39 1   
    18     9    11 1   
    19     9    12 1   
    20     9    31 1   
    21     9    32 1   
    22    10    11 2   
    23    11    21 1   
    24    12    13 1   
    25    13    16 ar  
    26    14    15 ar  
    27    14    33 1   
    28    15    16 ar  
    29    15    34 1   
    30    16    17 1   
    31    17    18 1   
    32    17    19 1   
    33    17    20 1   
    34    21    22 1   
    35    21    35 1   
    36    22    23 1   
    37    22    36 1   
    38    22    37 1   
    39    23    24 1   
    40    23    25 1   
@<TRIPOS>SUBSTRUCTURE
     1 UH9         1 TEMP              0 ****  ****    0 ROOT
