@<TRIPOS>MOLECULE
UH9
   39    40     1     0     0
SMALL
abcg2


@<TRIPOS>ATOM
      1 C14         26.8260    11.1700    20.6910 ca         1 UH9      -0.166000
      2 C15         27.2130    10.9430    21.9960 ca         1 UH9       0.141000
      3 C16         26.5320    11.4670    23.0780 ca         1 UH9      -0.121000
      4 C13         25.7040    11.9570    20.4680 ca         1 UH9      -0.105000
      5 C12         25.0010    12.5020    21.5320 ca         1 UH9      -0.085000
      6 C11         25.4150    12.2570    22.8380 ca         1 UH9      -0.105300
      7 C4          23.2130    15.0200    28.2450 ca         1 UH9      -0.202000
      8 C5          24.1820    16.0150    28.2600 ca         1 UH9      -0.133000
      9 C2          21.6160    12.7250    27.5060 c3         1 UH9       0.099600
     10 O1          23.1890    11.0940    26.8090 o          1 UH9      -0.726100
     11 C1          22.5380    12.0810    26.4770 c          1 UH9       0.556100
     12 O2          21.2610    14.0560    27.2310 os         1 UH9      -0.320100
     13 C3          22.2530    14.9980    27.2370 ca         1 UH9       0.145100
     14 C6          24.1890    16.9840    27.2690 ca         1 UH9      -0.178000
     15 C7          23.2270    16.9380    26.2670 ca         1 UH9      -0.055000
     16 C8          22.2450    15.9500    26.2110 ca         1 UH9      -0.153500
     17 P1          20.9990    15.9480    24.8130 p5         1 UH9       1.207000
     18 O3          21.5390    16.9690    23.8160 o          1 UH9      -0.885500
     19 O4          21.0500    14.4960    24.2670 o          1 UH9      -0.885500
     20 O5          19.6590    16.3050    25.4440 o          1 UH9      -0.885500
     21 N1          22.5120    12.6170    25.2560 ns         1 UH9      -0.497900
     22 C9          23.3040    12.0730    24.1930 c3         1 UH9       0.072000
     23 C10         24.6110    12.8220    23.9770 c3         1 UH9       0.203300
     24 F1          24.3560    14.1410    23.7290 f          1 UH9      -0.097500
     25 F2          25.3420    12.8080    25.1270 f          1 UH9      -0.097500
     26 F3          28.2980    10.1890    22.2310 f          1 UH9      -0.201000
     27 H1          27.3830    10.7430    19.8670 ha         1 UH9       0.109000
     28 H2          26.8760    11.2520    24.0800 ha         1 UH9       0.146000
     29 H3          25.3800    12.1490    19.4550 ha         1 UH9       0.106000
     30 H4          24.1310    13.1150    21.3350 ha         1 UH9       0.155000
     31 H7          20.6810    12.1580    27.5200 h1         1 UH9       0.038700
     32 H8          22.0700    12.5980    28.4940 h1         1 UH9       0.038700
     33 H9          24.9390    17.7650    27.2710 ha         1 UH9       0.067000
     34 H10         23.2450    17.6840    25.4820 ha         1 UH9       0.131000
     35 H13         21.8680    13.4300    24.9660 hn         1 UH9       0.445500
     36 H14         22.7340    12.1190    23.2620 h1         1 UH9       0.049700
     37 H15         23.5400    11.0210    24.3680 h1         1 UH9       0.049700
     38 H5          23.2140    14.2800    29.0360 ha         1 UH9       0.078000
     39 H6          24.9240    16.0270    29.0480 ha         1 UH9       0.061000
@<TRIPOS>BOND
     1     1     2 ar  
     2     1     4 ar  
     3     1    27 1   
     4     2     3 ar  
     5     2    26 1   
     6     3     6 ar  
     7     3    28 1   
     8     4     5 ar  
     9     4    29 1   
    10     5     6 ar  
    11     5    30 1   
    12     6    23 1   
    13     7     8 ar  
    14     7    13 ar  
    15     7    38 1   
    16     8    14 ar  
    17     8    39 1   
    18     9    11 1   
    19     9    12 1   
    20     9    31 1   
    21     9    32 1   
    22    10    11 2   
    23    11    21 1   
    24    12    13 1   
    25    13    16 ar  
    26    14    15 ar  
    27    14    33 1   
    28    15    16 ar  
    29    15    34 1   
    30    16    17 1   
    31    17    18 1   
    32    17    19 1   
    33    17    20 1   
    34    21    22 1   
    35    21    35 1   
    36    22    23 1   
    37    22    36 1   
    38    22    37 1   
    39    23    24 1   
    40    23    25 1   
@<TRIPOS>SUBSTRUCTURE
     1 UH9         1 TEMP              0 ****  ****    0 ROOT
