@<TRIPOS>MOLECULE
UHA
   34    35     1     0     0
SMALL
bcc


@<TRIPOS>ATOM
      1 N1           7.5890     2.2520    18.2320 nb         1 UHA      -0.654000
      2 C4           8.1750     1.5530    19.1920 ca         1 UHA       0.415200
      3 C5           6.3580     1.9020    17.8770 ca         1 UHA       0.394200
      4 C6           5.6710     0.8510    18.4610 ca         1 UHA      -0.236300
      5 C7           6.2670     0.1200    19.4820 ca         1 UHA      -0.064300
      6 C8           5.5610    -1.0130    20.1570 c3         1 UHA      -0.051800
      7 C10         11.8170     0.2490    22.5620 ca         1 UHA      -0.108000
      8 C13         12.6770    -2.2160    21.6730 ca         1 UHA       0.028400
      9 CL          13.2060    -3.7720    21.1180 cl         1 UHA      -0.112400
     10 C12         13.5850    -1.1740    21.7420 ca         1 UHA      -0.115000
     11 C11         13.1400     0.0630    22.1900 ca         1 UHA      -0.119000
     12 C14         11.3500    -2.0470    22.0390 ca         1 UHA      -0.120000
     13 C9          10.9110    -0.8080    22.4910 ca         1 UHA      -0.078300
     14 C1           9.4640    -0.6300    22.9020 c3         1 UHA      -0.091400
     15 C            9.3210    -0.1780    24.3510 c3         1 UHA      -0.076100
     16 C2           8.8090     0.3600    21.9480 c          1 UHA       0.674100
     17 O            8.8280     1.5620    22.1330 o          1 UHA      -0.574100
     18 C3           7.5610     0.4920    19.8490 ca         1 UHA      -0.066700
     19 H1           9.1880     1.8380    19.4520 h4         1 UHA       0.035100
     20 H2           5.8940     2.4820    17.0870 h4         1 UHA       0.021100
     21 H3           4.6680     0.6120    18.1310 ha         1 UHA       0.140000
     22 H4           6.0150    -1.9720    19.9010 hc         1 UHA       0.047033
     23 H5           5.6030    -0.9160    21.2420 hc         1 UHA       0.047033
     24 H6           4.5150    -1.0560    19.8580 hc         1 UHA       0.047033
     25 H7          11.4930     1.2230    22.9040 ha         1 UHA       0.153000
     26 H8          14.6180    -1.3190    21.4560 ha         1 UHA       0.149000
     27 H9          13.8380     0.8880    22.2470 ha         1 UHA       0.140000
     28 H10         10.6600    -2.8790    21.9800 ha         1 UHA       0.141000
     29 H11          8.9680    -1.5980    22.7970 hc         1 UHA       0.055700
     30 H12          9.7860    -0.9070    25.0130 hc         1 UHA       0.048367
     31 H13          9.7910     0.7880    24.5260 hc         1 UHA       0.048367
     32 H14          8.2700    -0.0960    24.6280 hc         1 UHA       0.048367
     33 H15          8.1810    -1.2220    20.8330 hn         1 UHA       0.321500
     34 N            8.2320    -0.2140    20.8630 ns         1 UHA      -0.484100
@<TRIPOS>BOND
     1     1     2 ar  
     2     1     3 ar  
     3     2    18 ar  
     4     2    19 1   
     5     3     4 ar  
     6     3    20 1   
     7     4     5 ar  
     8     4    21 1   
     9     5     6 1   
    10     5    18 ar  
    11     6    22 1   
    12     6    23 1   
    13     6    24 1   
    14     7    11 ar  
    15     7    13 ar  
    16     7    25 1   
    17     8     9 1   
    18     8    10 ar  
    19     8    12 ar  
    20    10    11 ar  
    21    10    26 1   
    22    11    27 1   
    23    12    13 ar  
    24    12    28 1   
    25    13    14 1   
    26    14    15 1   
    27    14    16 1   
    28    14    29 1   
    29    15    30 1   
    30    15    31 1   
    31    15    32 1   
    32    16    17 2   
    33    16    34 1   
    34    18    34 1   
    35    33    34 1   
@<TRIPOS>SUBSTRUCTURE
     1 UHA         1 TEMP              0 ****  ****    0 ROOT
