@<TRIPOS>MOLECULE
UHA
   34    35     1     0     0
SMALL
No Charge or Current Charge


@<TRIPOS>ATOM
      1 N1           6.7290     2.6970    18.5580 nb         1 UHA      -0.654000
      2 C4           7.4460     2.1300    19.5580 ca         1 UHA       0.349900
      3 C5           5.7940     1.9400    17.9450 ca         1 UHA       0.328900
      4 C6           5.5400     0.6070    18.3010 ca         1 UHA      -0.153000
      5 C7           6.2800     0.0100    19.3380 ca         1 UHA      -0.064300
      6 C8           6.0110    -1.4390    19.7320 c3         1 UHA      -0.051800
      7 C10         12.1380     0.0540    22.7360 ca         1 UHA      -0.090000
      8 C13         12.5480    -2.5330    21.7270 ca         1 UHA       0.120000
      9 Cl          12.8020    -4.1530    21.0930 cl         1 UHA      -0.204000
     10 C12         13.6440    -1.6810    21.9290 ca         1 UHA      -0.097000
     11 C11         13.4390    -0.3850    22.4320 ca         1 UHA      -0.101000
     12 C14         11.2470    -2.0960    22.0300 ca         1 UHA      -0.102000
     13 C9          11.0290    -0.7990    22.5410 ca         1 UHA      -0.078300
     14 C1           9.6040    -0.3350    22.8620 c3         1 UHA      -0.091400
     15 C            9.4680     0.2400    24.2940 c3         1 UHA      -0.076100
     16 C2           9.0930     0.6640    21.7970 c          1 UHA       0.607100
     17 O            9.6110     1.7620    21.6340 o          1 UHA      -0.574100
     18 C3           7.2650     0.7890    19.9870 ca         1 UHA      -0.094000
     19 H1           8.1770     2.7880    20.0200 h4         1 UHA       0.035100
     20 H2           5.2310     2.4180    17.1440 h4         1 UHA       0.021100
     21 H3           4.7730     0.0510    17.7690 ha         1 UHA       0.122000
     22 H4           6.9120    -2.0540    19.6150 hc         1 UHA       0.047033
     23 H5           5.6850    -1.5100    20.7760 hc         1 UHA       0.047033
     24 H6           5.2260    -1.8890    19.1130 hc         1 UHA       0.047033
     25 H7          11.9960     1.0630    23.1160 ha         1 UHA       0.135000
     26 H8          14.6490    -2.0220    21.6930 ha         1 UHA       0.131000
     27 H9          14.2860     0.2790    22.5860 ha         1 UHA       0.122000
     28 H10         10.4110    -2.7710    21.8660 ha         1 UHA       0.123000
     29 H11          8.9460    -1.2130    22.8270 hc         1 UHA       0.055700
     30 H12          9.8300    -0.4830    25.0350 hc         1 UHA       0.048367
     31 H13         10.0390     1.1680    24.4120 hc         1 UHA       0.048367
     32 H14          8.4170     0.4610    24.5210 hc         1 UHA       0.048367
     33 H15          7.7210    -0.7370    21.2880 hn         1 UHA       0.155000
     34 N            8.0220     0.1980    21.0430 ns         1 UHA      -0.158000
@<TRIPOS>BOND
     1     1     2 ar  
     2     1     3 ar  
     3     2    18 ar  
     4     2    19 1   
     5     3     4 ar  
     6     3    20 1   
     7     4     5 ar  
     8     4    21 1   
     9     5     6 1   
    10     5    18 ar  
    11     6    22 1   
    12     6    23 1   
    13     6    24 1   
    14     7    11 ar  
    15     7    13 ar  
    16     7    25 1   
    17     8     9 1   
    18     8    10 ar  
    19     8    12 ar  
    20    10    11 ar  
    21    10    26 1   
    22    11    27 1   
    23    12    13 ar  
    24    12    28 1   
    25    13    14 1   
    26    14    15 1   
    27    14    16 1   
    28    14    29 1   
    29    15    30 1   
    30    15    31 1   
    31    15    32 1   
    32    16    17 2   
    33    16    34 1   
    34    18    34 1   
    35    33    34 1   
@<TRIPOS>SUBSTRUCTURE
     1 UHA         1 TEMP              0 ****  ****    0 ROOT
