@<TRIPOS>MOLECULE
UHB
   66    71     1     0     0
SMALL
No Charge or Current Charge


@<TRIPOS>ATOM
      1 C01          9.6540    -0.7310    -1.4200 ca         1 UHB      -0.055000
      2 C02          8.5620    -0.5420    -2.2890 ca         1 UHB      -0.100000
      3 C03          7.3210    -0.0750    -1.7950 ca         1 UHB      -0.094000
      4 C04          7.1500     0.2150    -0.4170 ca         1 UHB      -0.016000
      5 C05          8.2570     0.0150     0.4280 ca         1 UHB      -0.136300
      6 C06          9.4660    -0.4420    -0.0620 ca         1 UHB      -0.138600
      7 C07         10.4300    -0.5490     1.0610 c          1 UHB       0.580600
      8 C08          8.3800     0.2320     1.9230 c5         1 UHB       0.151300
      9 N09          9.7750    -0.1510     2.2070 ns         1 UHB      -0.518900
     10 O10         11.5920    -0.9170     1.0040 o          1 UHB      -0.538000
     11 N11          5.9360     0.6860     0.1550 ns         1 UHB      -0.165000
     12 C12          4.7020     1.0070    -0.3990 c          1 UHB       0.600100
     13 O13          4.4520     0.9340    -1.6000 o          1 UHB      -0.547100
     14 C14          3.6560     1.4810     0.6580 c3         1 UHB       0.089800
     15 N15          2.1960     1.4300     0.3080 n3         1 UHB      -0.701600
     16 C16          1.3450     2.0870     1.3300 c6         1 UHB       0.147800
     17 C17         -0.1470     2.1400     0.9060 c6         1 UHB       0.095000
     18 N18         -0.7240     0.8360     0.4480 n          1 UHB      -0.412800
     19 C19          0.2200     0.0280    -0.3990 c6         1 UHB       0.095000
     20 C20          1.6990     0.0490     0.0720 c6         1 UHB       0.147800
     21 C21         -2.1380     0.7360     0.3270 c          1 UHB       0.589100
     22 C22         -2.6320    -0.7090    -0.0360 c5         1 UHB       0.091300
     23 C23         -2.6980    -0.8650    -1.5920 c5         1 UHB       0.109300
     24 C24         -4.0920    -0.2430    -1.8750 c5         1 UHB       0.080300
     25 C25         -4.9150    -0.8390    -0.6790 c5         1 UHB       0.321300
     26 O26         -3.9960    -0.9360     0.4340 os         1 UHB      -0.420000
     27 O27         -2.8700     1.6760     0.6220 o          1 UHB      -0.598100
     28 O28         -2.6660    -2.2320    -2.0160 oh         1 UHB      -0.708000
     29 O29         -4.5740    -0.6280    -3.1790 oh         1 UHB      -0.692000
     30 N30         -6.1070    -0.1110    -0.2490 na         1 UHB      -0.291300
     31 C31         -8.1270     0.4110     0.3800 ca         1 UHB      -0.098600
     32 C32         -7.3080    -0.6550     0.1050 ca         1 UHB       0.137500
     33 C33         -6.2350     1.2800    -0.1700 cc         1 UHB       0.420700
     34 N34         -7.4760     1.6380     0.2160 nd         1 UHB      -0.559100
     35 N35         -9.9050    -1.1150     0.8910 nb         1 UHB      -0.304000
     36 C36         -9.0160    -2.0950     0.5950 ca         1 UHB       0.180900
     37 N37         -7.7290    -1.9310     0.2030 nb         1 UHB      -0.220000
     38 C38         -9.4530     0.1440     0.7780 ca         1 UHB       0.450900
     39 N39        -10.3420     1.1280     1.0770 nv         1 UHB      -1.067900
     40 H01         10.6120    -1.0900    -1.7900 ha         1 UHB       0.139000
     41 H02          8.6750    -0.7590    -3.3490 ha         1 UHB       0.123000
     42 H03          6.5090     0.0520    -2.5030 ha         1 UHB       0.139000
     43 H081         8.1840     1.2800     2.1840 h1         1 UHB       0.052200
     44 H082         7.6660    -0.3980     2.4700 h1         1 UHB       0.052200
     45 HN09        10.2520    -0.1460     3.1010 hn         1 UHB       0.334500
     46 H14          3.8310     0.8880     1.5660 h1         1 UHB       0.050700
     47 H14A         3.9370     2.5130     0.9060 h1         1 UHB       0.050700
     48 H16          1.4180     1.5480     2.2870 h1         1 UHB       0.045700
     49 H16A         1.6900     3.1150     1.5150 h1         1 UHB       0.045700
     50 H17         -0.7310     2.5250     1.7540 h1         1 UHB       0.067450
     51 H17A        -0.2490     2.8690     0.0890 h1         1 UHB       0.067450
     52 H19         -0.0890    -1.0240    -0.4470 h1         1 UHB       0.067450
     53 H19A         0.1850     0.4230    -1.4240 h1         1 UHB       0.067450
     54 H20          2.3080    -0.4600    -0.6880 h1         1 UHB       0.045700
     55 H20A         1.7810    -0.5440     0.9950 h1         1 UHB       0.045700
     56 H22         -1.9670    -1.4400     0.4400 h1         1 UHB       0.103700
     57 H23         -1.9100    -0.2930    -2.1010 h1         1 UHB       0.060700
     58 H24         -4.0310     0.8520    -1.8010 h1         1 UHB       0.068700
     59 H25         -5.2480    -1.8510    -0.9470 h2         1 UHB       0.121700
     60 HO28        -3.2490    -2.2460    -2.8170 ho         1 UHB       0.528000
     61 HO29        -5.3730    -0.0820    -3.3830 ho         1 UHB       0.515000
     62 H33         -5.4180     1.9570    -0.3930 h5         1 UHB       0.089800
     63 H36         -9.3720    -3.1200     0.6820 h5         1 UHB       0.045100
     64 HN39        -9.9580     2.0610     1.2130 hn         1 UHB       0.506500
     65 HN3A       -11.1570     0.8870     1.6350 hn         1 UHB       0.506500
     66 HN11         5.9800     0.8090     1.1590 hn         1 UHB       0.150000
@<TRIPOS>BOND
     1     1     2 ar  
     2     1     6 ar  
     3     1    40 1   
     4     2     3 ar  
     5     2    41 1   
     6     3     4 ar  
     7     3    42 1   
     8     4     5 ar  
     9     4    11 1   
    10     5     6 ar  
    11     5     8 1   
    12     6     7 1   
    13     7     9 1   
    14     7    10 2   
    15     8     9 1   
    16     8    43 1   
    17     8    44 1   
    18     9    45 1   
    19    11    12 1   
    20    11    66 1   
    21    12    13 2   
    22    12    14 1   
    23    14    15 1   
    24    14    46 1   
    25    14    47 1   
    26    15    16 1   
    27    15    20 1   
    28    16    17 1   
    29    16    48 1   
    30    16    49 1   
    31    17    18 1   
    32    17    50 1   
    33    17    51 1   
    34    18    19 1   
    35    18    21 1   
    36    19    20 1   
    37    19    52 1   
    38    19    53 1   
    39    20    54 1   
    40    20    55 1   
    41    21    22 1   
    42    21    27 2   
    43    22    23 1   
    44    22    26 1   
    45    22    56 1   
    46    23    24 1   
    47    23    28 1   
    48    23    57 1   
    49    24    25 1   
    50    24    29 1   
    51    24    58 1   
    52    25    26 1   
    53    25    30 1   
    54    25    59 1   
    55    28    60 1   
    56    29    61 1   
    57    30    32 1   
    58    30    33 1   
    59    31    32 ar  
    60    31    34 1   
    61    31    38 ar  
    62    32    37 ar  
    63    33    34 2   
    64    33    62 1   
    65    35    36 ar  
    66    35    38 ar  
    67    36    37 ar  
    68    36    63 1   
    69    38    39 1   
    70    39    64 1   
    71    39    65 1   
@<TRIPOS>SUBSTRUCTURE
     1 UHB         1 TEMP              0 ****  ****    0 ROOT
