@<TRIPOS>MOLECULE
UHB
   66    71     1     0     0
SMALL
abcg2


@<TRIPOS>ATOM
      1 C01          9.3870    -0.8600    -1.1150 ca         1 UHB      -0.055000
      2 C02          8.2460    -0.9790    -1.8950 ca         1 UHB      -0.100000
      3 C03          6.9890    -0.6440    -1.3970 ca         1 UHB      -0.094000
      4 C04          6.8380    -0.1640    -0.0950 ca         1 UHB      -0.016000
      5 C05          7.9830    -0.0460     0.6830 ca         1 UHB      -0.136300
      6 C06          9.2230    -0.3950     0.1770 ca         1 UHB      -0.138600
      7 C07         10.2440    -0.1560     1.2240 c          1 UHB       0.580600
      8 C08          8.1390     0.4460     2.0890 c5         1 UHB       0.151300
      9 N09          9.5630     0.3200     2.2890 ns         1 UHB      -0.518900
     10 O10         11.4470    -0.3450     1.1450 o          1 UHB      -0.538000
     11 N11          5.6010     0.1720     0.4660 ns         1 UHB      -0.165000
     12 C12          4.5660     0.7890    -0.1660 c          1 UHB       0.600100
     13 O13          4.5520     1.0340    -1.3540 o          1 UHB      -0.547100
     14 C14          3.4460     1.1920     0.7820 c3         1 UHB       0.089800
     15 N15          2.1900     1.3460     0.1020 n3         1 UHB      -0.701600
     16 C16          1.2530     2.1550     0.8590 c6         1 UHB       0.147800
     17 C17         -0.0080     2.4000     0.0490 c6         1 UHB       0.095000
     18 N18         -0.6000     1.1320    -0.3450 n          1 UHB      -0.412800
     19 C19          0.3320     0.2870    -1.0720 c6         1 UHB       0.095000
     20 C20          1.5960     0.0730    -0.2580 c6         1 UHB       0.147800
     21 C21         -1.8780     0.8420    -0.0420 c          1 UHB       0.589100
     22 C22         -2.4100    -0.5260    -0.4850 c5         1 UHB       0.091300
     23 C23         -2.8040    -0.5220    -1.9650 c5         1 UHB       0.109300
     24 C24         -4.2570    -0.0520    -1.8610 c5         1 UHB       0.080300
     25 C25         -4.7110    -0.7840    -0.6010 c5         1 UHB       0.321300
     26 O26         -3.5880    -0.8320     0.2360 os         1 UHB      -0.420000
     27 O27         -2.6150     1.6210     0.5430 o          1 UHB      -0.598100
     28 O28         -2.7260    -1.8350    -2.4500 oh         1 UHB      -0.708000
     29 O29         -5.0700    -0.4150    -2.9360 oh         1 UHB      -0.692000
     30 N30         -5.8120    -0.1600     0.0820 na         1 UHB      -0.291300
     31 C31         -7.7650     0.2440     0.9790 ca         1 UHB      -0.098600
     32 C32         -7.0430    -0.7170     0.2910 ca         1 UHB       0.137500
     33 C33         -5.8530     1.0850     0.6540 cc         1 UHB       0.420700
     34 N34         -7.0000     1.3620     1.1980 nd         1 UHB      -0.559100
     35 N35         -9.5400    -1.2990     0.9520 nb         1 UHB      -0.304000
     36 C36         -8.7290    -2.1230     0.2940 ca         1 UHB       0.180900
     37 N37         -7.4770    -1.9190    -0.0790 nb         1 UHB      -0.220000
     38 C38         -9.0890    -0.0930     1.3160 ca         1 UHB       0.450900
     39 N39         -9.8990     0.7360     1.9740 nv         1 UHB      -1.067900
     40 H01         10.3630    -1.1220    -1.5020 ha         1 UHB       0.139000
     41 H02          8.3210    -1.3470    -2.9090 ha         1 UHB       0.123000
     42 H03          6.1250    -0.7750    -2.0300 ha         1 UHB       0.139000
     43 H081         7.8060     1.4820     2.1990 h1         1 UHB       0.052200
     44 H082         7.5820    -0.1590     2.8110 h1         1 UHB       0.052200
     45 HN09        10.0120     0.5830     3.1510 hn         1 UHB       0.334500
     46 H14          3.3990     0.4890     1.6300 h1         1 UHB       0.050700
     47 H14A         3.7400     2.1590     1.2060 h1         1 UHB       0.050700
     48 H16          0.9800     1.6870     1.8190 h1         1 UHB       0.045700
     49 H16A         1.7150     3.1180     1.0870 h1         1 UHB       0.045700
     50 H17         -0.7220     2.9740     0.6330 h1         1 UHB       0.067450
     51 H17A         0.2380     2.9740    -0.8500 h1         1 UHB       0.067450
     52 H19         -0.1010    -0.6790    -1.3140 h1         1 UHB       0.067450
     53 H19A         0.5820     0.7720    -2.0200 h1         1 UHB       0.067450
     54 H20          2.2960    -0.5050    -0.8630 h1         1 UHB       0.045700
     55 H20A         1.3530    -0.5320     0.6320 h1         1 UHB       0.045700
     56 H22         -1.6760    -1.3090    -0.2760 h1         1 UHB       0.103700
     57 H23         -2.1940     0.1680    -2.5620 h1         1 UHB       0.060700
     58 H24         -4.2720     1.0320    -1.6880 h1         1 UHB       0.068700
     59 H25         -5.0530    -1.7920    -0.8590 h2         1 UHB       0.121700
     60 HO28        -3.2880    -1.8970    -3.2320 ho         1 UHB       0.528000
     61 HO29        -4.9540     0.2260    -3.6450 ho         1 UHB       0.515000
     62 H33         -4.9900     1.7320     0.6490 h5         1 UHB       0.089800
     63 H36         -9.1550    -3.0850     0.0310 h5         1 UHB       0.045100
     64 HN39        -9.5880     1.6450     2.2700 hn         1 UHB       0.506500
     65 HN3A       -10.8370     0.4550     2.2060 hn         1 UHB       0.506500
     66 HN11         5.5130     0.0470     1.4640 hn         1 UHB       0.150000
@<TRIPOS>BOND
     1     1     2 ar  
     2     1     6 ar  
     3     1    40 1   
     4     2     3 ar  
     5     2    41 1   
     6     3     4 ar  
     7     3    42 1   
     8     4     5 ar  
     9     4    11 1   
    10     5     6 ar  
    11     5     8 1   
    12     6     7 1   
    13     7     9 1   
    14     7    10 2   
    15     8     9 1   
    16     8    43 1   
    17     8    44 1   
    18     9    45 1   
    19    11    12 1   
    20    11    66 1   
    21    12    13 2   
    22    12    14 1   
    23    14    15 1   
    24    14    46 1   
    25    14    47 1   
    26    15    16 1   
    27    15    20 1   
    28    16    17 1   
    29    16    48 1   
    30    16    49 1   
    31    17    18 1   
    32    17    50 1   
    33    17    51 1   
    34    18    19 1   
    35    18    21 1   
    36    19    20 1   
    37    19    52 1   
    38    19    53 1   
    39    20    54 1   
    40    20    55 1   
    41    21    22 1   
    42    21    27 2   
    43    22    23 1   
    44    22    26 1   
    45    22    56 1   
    46    23    24 1   
    47    23    28 1   
    48    23    57 1   
    49    24    25 1   
    50    24    29 1   
    51    24    58 1   
    52    25    26 1   
    53    25    30 1   
    54    25    59 1   
    55    28    60 1   
    56    29    61 1   
    57    30    32 1   
    58    30    33 1   
    59    31    32 ar  
    60    31    34 1   
    61    31    38 ar  
    62    32    37 ar  
    63    33    34 2   
    64    33    62 1   
    65    35    36 ar  
    66    35    38 ar  
    67    36    37 ar  
    68    36    63 1   
    69    38    39 1   
    70    39    64 1   
    71    39    65 1   
@<TRIPOS>SUBSTRUCTURE
     1 UHB         1 TEMP              0 ****  ****    0 ROOT
