@<TRIPOS>MOLECULE
UHD
   48    49     1     0     0
SMALL
bcc


@<TRIPOS>ATOM
      1 C2          -6.5530    -1.7300     0.1010 cc         1 UHD       0.407300
      2 N3          -5.4340    -1.9390    -0.5210 nd         1 UHD      -0.582000
      3 C4          -4.6180    -0.8710    -0.3710 cd         1 UHD       0.334800
      4 C7          -5.1210     0.1570     0.3700 cc         1 UHD      -0.258000
      5 C7A         -4.3780     1.3740     0.6240 c          1 UHD       0.588900
      6 O7          -4.7880     2.3040     1.2830 o          1 UHD      -0.509100
      7 C6          -3.0170     1.4360     0.0050 cc         1 UHD       0.060900
      8 O6          -2.3420     2.5510     0.2440 oh         1 UHD      -0.469100
      9 C4A         -3.2590    -0.7950    -0.9650 c          1 UHD       0.496800
     10 O4          -2.8190    -1.7300    -1.6010 o          1 UHD      -0.465100
     11 C5          -2.4950     0.4430    -0.7470 cd         1 UHD      -0.204400
     12 C8          -1.1200     0.5390    -1.3350 c3         1 UHD      -0.019200
     13 C9          -0.0270     0.1020    -0.3550 c3         1 UHD      -0.069400
     14 C10          1.3590     0.1640    -0.9820 c3         1 UHD      -0.074400
     15 C11          2.4820    -0.1440     0.0000 c3         1 UHD      -0.073400
     16 C12          3.8640    -0.0760    -0.6390 c3         1 UHD      -0.074400
     17 C13          5.0050    -0.2380     0.3570 c3         1 UHD      -0.073400
     18 C14          6.3810    -0.1580    -0.2920 c3         1 UHD      -0.074400
     19 C15          7.5280    -0.2250     0.7090 c3         1 UHD      -0.074400
     20 C16          8.9010    -0.1270     0.0560 c3         1 UHD      -0.076400
     21 C17         10.0520    -0.1690     1.0540 c3         1 UHD      -0.074400
     22 C18         11.4160    -0.0550     0.3860 c3         1 UHD      -0.088100
     23 S1          -6.6940    -0.2220     0.9110 ss         1 UHD      -0.037300
     24 H2          -7.3690    -2.4390     0.1260 h5         1 UHD       0.061100
     25 HO6         -2.8730     3.1490     0.7940 ho         1 UHD       0.452000
     26 H81         -0.9240     1.5640    -1.6570 hc         1 UHD       0.060700
     27 H82         -1.0700    -0.0820    -2.2310 hc         1 UHD       0.060700
     28 H91         -0.2320    -0.9160    -0.0080 hc         1 UHD       0.043200
     29 H92         -0.0570     0.7440     0.5300 hc         1 UHD       0.043200
     30 H101         1.5200     1.1630    -1.4030 hc         1 UHD       0.038700
     31 H102         1.4070    -0.5320    -1.8260 hc         1 UHD       0.038700
     32 H111         2.3280    -1.1360     0.4390 hc         1 UHD       0.037700
     33 H112         2.4360     0.5670     0.8330 hc         1 UHD       0.037700
     34 H121         3.9740     0.8850    -1.1530 hc         1 UHD       0.037700
     35 H122         3.9440    -0.8440    -1.4170 hc         1 UHD       0.037700
     36 H131         4.9040    -1.1940     0.8830 hc         1 UHD       0.037200
     37 H132         4.9220     0.5390     1.1250 hc         1 UHD       0.037200
     38 H141         6.4560     0.7750    -0.8630 hc         1 UHD       0.037200
     39 H142         6.4880    -0.9670    -1.0220 hc         1 UHD       0.037200
     40 H151         7.4620    -1.1580     1.2800 hc         1 UHD       0.036700
     41 H152         7.4160     0.5850     1.4390 hc         1 UHD       0.036700
     42 H161         8.9600     0.8010    -0.5250 hc         1 UHD       0.036700
     43 H162         9.0190    -0.9420    -0.6670 hc         1 UHD       0.036700
     44 H171         9.9990    -1.0990     1.6280 hc         1 UHD       0.036700
     45 H172         9.9300     0.6420     1.7780 hc         1 UHD       0.036700
     46 H181        11.5070     0.8860    -0.1610 hc         1 UHD       0.031367
     47 H182        12.2260    -0.0930     1.1140 hc         1 UHD       0.031367
     48 H183        11.5740    -0.8650    -0.3290 hc         1 UHD       0.031367
@<TRIPOS>BOND
     1     1     2 2   
     2     1    23 1   
     3     1    24 1   
     4     2     3 1   
     5     3     4 2   
     6     3     9 1   
     7     4     5 1   
     8     4    23 1   
     9     5     6 2   
    10     5     7 1   
    11     7     8 1   
    12     7    11 2   
    13     8    25 1   
    14     9    10 2   
    15     9    11 1   
    16    11    12 1   
    17    12    13 1   
    18    12    26 1   
    19    12    27 1   
    20    13    14 1   
    21    13    28 1   
    22    13    29 1   
    23    14    15 1   
    24    14    30 1   
    25    14    31 1   
    26    15    16 1   
    27    15    32 1   
    28    15    33 1   
    29    16    17 1   
    30    16    34 1   
    31    16    35 1   
    32    17    18 1   
    33    17    36 1   
    34    17    37 1   
    35    18    19 1   
    36    18    38 1   
    37    18    39 1   
    38    19    20 1   
    39    19    40 1   
    40    19    41 1   
    41    20    21 1   
    42    20    42 1   
    43    20    43 1   
    44    21    22 1   
    45    21    44 1   
    46    21    45 1   
    47    22    46 1   
    48    22    47 1   
    49    22    48 1   
@<TRIPOS>SUBSTRUCTURE
     1 UHD         1 TEMP              0 ****  ****    0 ROOT
