@<TRIPOS>MOLECULE
UHD
   48    49     1     0     0
SMALL
No Charge or Current Charge


@<TRIPOS>ATOM
      1 C2          -6.4290    -2.0370     0.5140 cc         1 UHD       0.407300
      2 N3          -5.2660    -2.2580    -0.0930 nd         1 UHD      -0.582000
      3 C4          -4.5280    -1.0730    -0.1840 cd         1 UHD       0.269500
      4 C7          -5.1800     0.0080     0.3690 cc         1 UHD      -0.337600
      5 C7A         -4.6140     1.3590     0.4020 c          1 UHD       0.588900
      6 O7          -5.2110     2.3040     0.9030 o          1 UHD      -0.509100
      7 C6          -3.2570     1.5090    -0.2180 cc         1 UHD       0.060900
      8 O6          -2.7510     2.7730    -0.1710 oh         1 UHD      -0.508100
      9 C4A         -3.1610    -0.9270    -0.8070 c          1 UHD       0.496800
     10 O4          -2.5690    -1.8830    -1.3000 o          1 UHD      -0.465100
     11 C5          -2.5650     0.4510    -0.7890 cd         1 UHD      -0.204400
     12 C8          -1.1860     0.5960    -1.4180 c3         1 UHD      -0.019200
     13 C9          -0.0510     0.2560    -0.4280 c3         1 UHD      -0.069400
     14 C10          1.3580     0.4080    -1.0430 c3         1 UHD      -0.074400
     15 C11          2.4910     0.0690    -0.0500 c3         1 UHD      -0.073400
     16 C12          3.8990     0.2210    -0.6650 c3         1 UHD      -0.074400
     17 C13          5.0320    -0.1190     0.3280 c3         1 UHD      -0.073400
     18 C14          6.4400     0.0320    -0.2870 c3         1 UHD      -0.074400
     19 C15          7.5730    -0.3070     0.7060 c3         1 UHD      -0.074400
     20 C16          8.9820    -0.1560     0.0910 c3         1 UHD      -0.076400
     21 C17         10.1150    -0.4950     1.0840 c3         1 UHD      -0.074400
     22 C18         11.5200    -0.3440     0.4700 c3         1 UHD      -0.088100
     23 S1          -6.7390    -0.4010     1.0260 ss         1 UHD       0.107600
     24 H2          -7.1770    -2.7960     0.7040 h5         1 UHD       0.061100
     25 HO6         -3.4230     3.3360     0.2800 ho         1 UHD       0.491000
     26 H81         -1.0400     1.6200    -1.7840 hc         1 UHD       0.060700
     27 H82         -1.0930    -0.0410    -2.3060 hc         1 UHD       0.060700
     28 H91         -0.1780    -0.7730    -0.0710 hc         1 UHD       0.043200
     29 H92         -0.1340     0.9110     0.4490 hc         1 UHD       0.043200
     30 H101         1.4870     1.4390    -1.3970 hc         1 UHD       0.038700
     31 H102         1.4400    -0.2450    -1.9210 hc         1 UHD       0.038700
     32 H111         2.3620    -0.9620     0.3050 hc         1 UHD       0.037700
     33 H112         2.4080     0.7220     0.8280 hc         1 UHD       0.037700
     34 H121         4.0280     1.2510    -1.0190 hc         1 UHD       0.037700
     35 H122         3.9810    -0.4330    -1.5430 hc         1 UHD       0.037700
     36 H131         4.9030    -1.1500     0.6830 hc         1 UHD       0.037200
     37 H132         4.9500     0.5340     1.2060 hc         1 UHD       0.037200
     38 H141         6.5690     1.0630    -0.6410 hc         1 UHD       0.037200
     39 H142         6.5230    -0.6210    -1.1650 hc         1 UHD       0.037200
     40 H151         7.4440    -1.3380     1.0610 hc         1 UHD       0.036700
     41 H152         7.4910     0.3460     1.5840 hc         1 UHD       0.036700
     42 H161         9.1110     0.8750    -0.2640 hc         1 UHD       0.036700
     43 H162         9.0640    -0.8090    -0.7870 hc         1 UHD       0.036700
     44 H171         9.9910    -1.5260     1.4390 hc         1 UHD       0.036700
     45 H172        10.0380     0.1580     1.9620 hc         1 UHD       0.036700
     46 H181        11.6890     0.6870     0.1360 hc         1 UHD       0.031367
     47 H182        12.2900    -0.5950     1.2110 hc         1 UHD       0.031367
     48 H183        11.6420    -1.0120    -0.3910 hc         1 UHD       0.031367
@<TRIPOS>BOND
     1     1     2 2   
     2     1    23 1   
     3     1    24 1   
     4     2     3 1   
     5     3     4 2   
     6     3     9 1   
     7     4     5 1   
     8     4    23 1   
     9     5     6 2   
    10     5     7 1   
    11     7     8 1   
    12     7    11 2   
    13     8    25 1   
    14     9    10 2   
    15     9    11 1   
    16    11    12 1   
    17    12    13 1   
    18    12    26 1   
    19    12    27 1   
    20    13    14 1   
    21    13    28 1   
    22    13    29 1   
    23    14    15 1   
    24    14    30 1   
    25    14    31 1   
    26    15    16 1   
    27    15    32 1   
    28    15    33 1   
    29    16    17 1   
    30    16    34 1   
    31    16    35 1   
    32    17    18 1   
    33    17    36 1   
    34    17    37 1   
    35    18    19 1   
    36    18    38 1   
    37    18    39 1   
    38    19    20 1   
    39    19    40 1   
    40    19    41 1   
    41    20    21 1   
    42    20    42 1   
    43    20    43 1   
    44    21    22 1   
    45    21    44 1   
    46    21    45 1   
    47    22    46 1   
    48    22    47 1   
    49    22    48 1   
@<TRIPOS>SUBSTRUCTURE
     1 UHD         1 TEMP              0 ****  ****    0 ROOT
