@<TRIPOS>MOLECULE
UHE
   36    36     1     0     0
SMALL
abcg2


@<TRIPOS>ATOM
      1 C10          4.5650     8.7940   -17.6280 c3         1 UHE       0.010300
      2 C13          3.2150     9.5320   -19.6970 c3         1 UHE      -0.064700
      3 C15          2.8180    10.7740   -20.4980 c3         1 UHE      -0.090100
      4 C17          8.7120     6.1990   -20.9750 ca         1 UHE      -0.142000
      5 C01         11.5700     7.4840   -22.8510 c3         1 UHE       0.149900
      6 C03          9.6400     7.1040   -21.4920 ca         1 UHE       0.113100
      7 C04          9.5250     8.4560   -21.1660 ca         1 UHE      -0.142000
      8 C05          8.4940     8.8780   -20.3370 ca         1 UHE      -0.108500
      9 C06          7.5660     7.9760   -19.8190 ca         1 UHE      -0.060000
     10 C08          5.4750     7.8820   -18.4510 c          1 UHE       0.621100
     11 C12          3.9810     9.9570   -18.4360 c3         1 UHE      -0.070400
     12 C14          1.9860     8.6810   -19.3710 c3         1 UHE      -0.090100
     13 C16          7.6850     6.6210   -20.1460 ca         1 UHE      -0.108500
     14 N07          6.5590     8.4960   -18.9800 ns         1 UHE      -0.133000
     15 O09          5.1980     6.6970   -18.6120 o          1 UHE      -0.580100
     16 S11          5.5250     9.3810   -16.1620 sh         1 UHE      -0.444800
     17 H1           3.7750     8.1520   -17.2530 h1         1 UHE       0.102700
     18 H2           3.8900     8.9350   -20.3210 hc         1 UHE       0.056700
     19 H3           3.6950    11.3690   -20.7620 hc         1 UHE       0.037033
     20 H4           2.3070    10.4930   -21.4210 hc         1 UHE       0.037033
     21 H5           2.1420    11.4070   -19.9180 hc         1 UHE       0.037033
     22 H6           8.8060     5.1510   -21.2300 ha         1 UHE       0.124000
     23 H7          12.2330     6.8740   -23.4590 h1         1 UHE       0.040700
     24 H8          11.0850     8.2360   -23.4780 h1         1 UHE       0.040700
     25 H9          12.1450     7.9810   -22.0660 h1         1 UHE       0.040700
     26 H10         10.2260     9.1840   -21.5460 ha         1 UHE       0.124000
     27 H11          8.4120     9.9300   -20.0880 ha         1 UHE       0.130500
     28 H12          4.7830    10.6440   -18.7150 hc         1 UHE       0.048200
     29 H13          3.3090    10.5180   -17.7790 hc         1 UHE       0.048200
     30 H14          2.2530     7.7430   -18.8820 hc         1 UHE       0.037033
     31 H15          1.3080     9.2270   -18.7090 hc         1 UHE       0.037033
     32 H16          1.4380     8.4360   -20.2840 hc         1 UHE       0.037033
     33 H17          6.9790     5.9090   -19.7550 ha         1 UHE       0.130500
     34 H18          6.6530     9.4810   -18.7750 hn         1 UHE       0.158000
     35 H19          4.5130    10.0630   -15.5990 hs         1 UHE       0.220800
     36 O02         10.6120     6.5860   -22.2930 os         1 UHE      -0.348100
@<TRIPOS>BOND
     1     1    10 1   
     2     1    11 1   
     3     1    16 1   
     4     1    17 1   
     5     2     3 1   
     6     2    11 1   
     7     2    12 1   
     8     2    18 1   
     9     3    19 1   
    10     3    20 1   
    11     3    21 1   
    12     4     6 ar  
    13     4    13 ar  
    14     4    22 1   
    15     5    23 1   
    16     5    24 1   
    17     5    25 1   
    18     5    36 1   
    19     6     7 ar  
    20     6    36 1   
    21     7     8 ar  
    22     7    26 1   
    23     8     9 ar  
    24     8    27 1   
    25     9    13 ar  
    26     9    14 1   
    27    10    14 1   
    28    10    15 2   
    29    11    28 1   
    30    11    29 1   
    31    12    30 1   
    32    12    31 1   
    33    12    32 1   
    34    13    33 1   
    35    14    34 1   
    36    16    35 1   
@<TRIPOS>SUBSTRUCTURE
     1 UHE         1 TEMP              0 ****  ****    0 ROOT
