@<TRIPOS>MOLECULE
UHE
   36    36     1     0     0
SMALL
No Charge or Current Charge


@<TRIPOS>ATOM
      1 C10          4.6000     8.8970   -17.5840 c3         1 UHE       0.010300
      2 C13          3.1040     9.5090   -19.6640 c3         1 UHE      -0.064700
      3 C15          2.6000    10.7010   -20.5080 c3         1 UHE      -0.090100
      4 C17          8.5940     6.2490   -21.2610 ca         1 UHE      -0.142000
      5 C01         11.7830     7.4060   -22.8100 c3         1 UHE       0.149900
      6 C03          9.6620     7.1000   -21.5830 ca         1 UHE       0.113100
      7 C04          9.6900     8.4070   -21.0520 ca         1 UHE      -0.142000
      8 C05          8.6550     8.8440   -20.2060 ca         1 UHE      -0.108500
      9 C06          7.5840     7.9910   -19.8760 ca         1 UHE      -0.060000
     10 C08          5.4690     7.9160   -18.4090 c          1 UHE       0.621100
     11 C12          3.9440    10.0070   -18.4520 c3         1 UHE      -0.070400
     12 C14          1.9240     8.6010   -19.2410 c3         1 UHE      -0.090100
     13 C16          7.5590     6.6860   -20.4150 ca         1 UHE      -0.108500
     14 N07          6.5710     8.5050   -19.0190 ns         1 UHE      -0.133000
     15 O09          5.1970     6.7210   -18.4820 o          1 UHE      -0.580100
     16 S11          5.5880     9.6180   -16.1710 sh         1 UHE      -0.444800
     17 H1           3.8030     8.2920   -17.1350 h1         1 UHE       0.102700
     18 H2           3.7580     8.9170   -20.3160 hc         1 UHE       0.056700
     19 H3           3.4410    11.3140   -20.8560 hc         1 UHE       0.037033
     20 H4           2.0540    10.3490   -21.3910 hc         1 UHE       0.037033
     21 H5           1.9290    11.3410   -19.9220 hc         1 UHE       0.037033
     22 H6           8.5670     5.2430   -21.6720 ha         1 UHE       0.124000
     23 H7          12.4400     6.8290   -23.4720 h1         1 UHE       0.040700
     24 H8          11.4630     8.3070   -23.3490 h1         1 UHE       0.040700
     25 H9          12.3680     7.7090   -21.9320 h1         1 UHE       0.040700
     26 H10         10.5000     9.0930   -21.2820 ha         1 UHE       0.124000
     27 H11          8.6890     9.8550   -19.8040 ha         1 UHE       0.130500
     28 H12          4.7330    10.6750   -18.8210 hc         1 UHE       0.048200
     29 H13          3.3040    10.6210   -17.8060 hc         1 UHE       0.048200
     30 H14          2.2800     7.6830   -18.7590 hc         1 UHE       0.037033
     31 H15          1.2600     9.1240   -18.5420 hc         1 UHE       0.037033
     32 H16          1.3330     8.3040   -20.1160 hc         1 UHE       0.037033
     33 H17          6.7470     5.9980   -20.2000 ha         1 UHE       0.130500
     34 H18          6.6690     9.4920   -18.8170 hn         1 UHE       0.158000
     35 H19          4.5670    10.3130   -15.6080 hs         1 UHE       0.220800
     36 O02         10.6480     6.6130   -22.4190 os         1 UHE      -0.348100
@<TRIPOS>BOND
     1     1    10 1   
     2     1    11 1   
     3     1    16 1   
     4     1    17 1   
     5     2     3 1   
     6     2    11 1   
     7     2    12 1   
     8     2    18 1   
     9     3    19 1   
    10     3    20 1   
    11     3    21 1   
    12     4     6 ar  
    13     4    13 ar  
    14     4    22 1   
    15     5    23 1   
    16     5    24 1   
    17     5    25 1   
    18     5    36 1   
    19     6     7 ar  
    20     6    36 1   
    21     7     8 ar  
    22     7    26 1   
    23     8     9 ar  
    24     8    27 1   
    25     9    13 ar  
    26     9    14 1   
    27    10    14 1   
    28    10    15 2   
    29    11    28 1   
    30    11    29 1   
    31    12    30 1   
    32    12    31 1   
    33    12    32 1   
    34    13    33 1   
    35    14    34 1   
    36    16    35 1   
@<TRIPOS>SUBSTRUCTURE
     1 UHE         1 TEMP              0 ****  ****    0 ROOT
