@<TRIPOS>MOLECULE
UHF
   57    57     1     0     0
SMALL
No Charge or Current Charge


@<TRIPOS>ATOM
      1 C          -17.2700   144.7610    44.1050 c          1 UHF       0.552100
      2 N          -16.1370   146.1830    45.8160 ns         1 UHF      -0.495900
      3 O          -16.4310   145.0960    43.2740 o          1 UHF      -0.517100
      4 CA         -17.3940   145.4670    45.4870 c3         1 UHF       0.023700
      5 CB         -18.6500   146.3900    45.5720 c3         1 UHF      -0.064700
      6 CAA        -15.1140   140.1460    46.1050 c3         1 UHF      -0.088100
      7 OAH        -21.3770   143.1050    43.1660 oh         1 UHF      -0.457100
      8 CAI        -20.1280   141.9570    41.3400 c          1 UHF       0.584900
      9 CAJ        -12.6470   147.2550    50.3590 ca         1 UHF      -0.053000
     10 CAK        -13.6480   146.8880    49.4460 ca         1 UHF      -0.173000
     11 CAL        -11.4700   148.2710    48.5030 ca         1 UHF       0.369900
     12 CAM        -15.9450   140.5040    44.8590 c3         1 UHF      -0.071400
     13 CAO        -17.4750   142.2370    43.7200 c3         1 UHF      -0.068400
     14 CAP        -19.0970   143.9130    42.5920 c3         1 UHF       0.142000
     15 NAQ        -12.4330   147.9190    47.6200 nb         1 UHF      -0.736000
     16 CAT        -15.5330   146.1920    47.0480 c          1 UHF       0.667100
     17 CAV        -11.5320   147.9630    49.8770 ca         1 UHF      -0.160300
     18 CAW        -13.4960   147.2400    48.0900 ca         1 UHF       0.487900
     19 CAY        -18.2350   143.5900    43.8370 c3         1 UHF      -0.183700
     20 CG1        -18.5890   147.5870    44.5910 c3         1 UHF      -0.091100
     21 CG2        -18.9300   146.8710    47.0160 c3         1 UHF      -0.091100
     22 HN         -15.6760   146.7020    45.0780 hn         1 UHF       0.317500
     23 HA         -17.5250   144.6550    46.2150 h1         1 UHF       0.102700
     24 HB         -19.5190   145.7860    45.2810 hc         1 UHF       0.058700
     25 HAA        -14.6380   139.1650    45.9790 hc         1 UHF       0.034367
     26 HAAA       -14.3250   140.8900    46.2740 hc         1 UHF       0.034367
     27 HAAB       -15.7490   140.1060    46.9980 hc         1 UHF       0.034367
     28 HAB         -9.7380   147.5450    51.0240 hc         1 UHF       0.043033
     29 HABA        -9.8200   149.2030    50.4030 hc         1 UHF       0.043033
     30 HABB       -10.8180   148.7270    51.7840 hc         1 UHF       0.043033
     31 HOAH       -21.2870   142.4510    43.8970 ho         1 UHF       0.477000
     32 HAI        -19.1780   141.9740    40.7720 h5         1 UHF       0.040200
     33 HAJ        -12.7350   146.9970    51.4130 ha         1 UHF       0.119000
     34 HAK        -14.5200   146.3490    49.7970 ha         1 UHF       0.159000
     35 HAL        -10.6210   148.8170    48.0940 h4         1 UHF       0.017100
     36 HAM        -15.2890   140.5020    43.9800 hc         1 UHF       0.035700
     37 HAMA       -16.7000   139.7240    44.6980 hc         1 UHF       0.035700
     38 HAO        -16.8130   142.2650    42.8440 hc         1 UHF       0.049700
     39 HAOA       -18.1970   141.4310    43.5410 hc         1 UHF       0.049700
     40 HAP        -19.5470   144.9080    42.7130 h1         1 UHF       0.066200
     41 HAPA       -18.4530   143.9570    41.7020 h1         1 UHF       0.066200
     42 HAY        -18.9100   143.5110    44.6970 hc         1 UHF       0.080700
     43 HG1        -19.5160   148.1710    44.6380 hc         1 UHF       0.040533
     44 HG1A       -17.7560   148.2570    44.8360 hc         1 UHF       0.040533
     45 HG1B       -18.4640   147.2460    43.5570 hc         1 UHF       0.040533
     46 HG2        -19.8820   147.4140    47.0640 hc         1 UHF       0.040533
     47 HG2A       -18.9940   146.0190    47.7040 hc         1 UHF       0.040533
     48 HG2B       -18.1390   147.5420    47.3700 hc         1 UHF       0.040533
     49 NBA        -20.1870   142.9440    42.3570 n          1 UHF      -0.292300
     50 OAF        -15.9700   145.5760    48.0050 o          1 UHF      -0.632100
     51 CAN        -16.6430   141.8770    44.9740 c3         1 UHF      -0.084400
     52 NAR        -14.3970   146.9540    47.0590 ns         1 UHF      -0.332900
     53 CAB        -10.4160   148.3830    50.8230 c3         1 UHF      -0.035800
     54 OAE        -21.0420   141.1640    41.1290 o          1 UHF      -0.615100
     55 HAN        -17.2990   141.8740    45.8540 hc         1 UHF       0.050700
     56 HANA       -15.8790   142.6460    45.1450 hc         1 UHF       0.050700
     57 HNAR       -14.1530   147.3870    46.1810 hn         1 UHF       0.163000
@<TRIPOS>BOND
     1     1     3 2   
     2     1     4 1   
     3     1    19 1   
     4     2     4 1   
     5     2    16 1   
     6     2    22 1   
     7     4     5 1   
     8     4    23 1   
     9     5    20 1   
    10     5    21 1   
    11     5    24 1   
    12     6    12 1   
    13     6    25 1   
    14     6    26 1   
    15     6    27 1   
    16     7    31 1   
    17     7    49 1   
    18     8    32 1   
    19     8    49 1   
    20     8    54 2   
    21     9    10 ar  
    22     9    17 ar  
    23     9    33 1   
    24    10    18 ar  
    25    10    34 1   
    26    11    15 ar  
    27    11    17 ar  
    28    11    35 1   
    29    12    36 1   
    30    12    37 1   
    31    12    51 1   
    32    13    19 1   
    33    13    38 1   
    34    13    39 1   
    35    13    51 1   
    36    14    19 1   
    37    14    40 1   
    38    14    41 1   
    39    14    49 1   
    40    15    18 ar  
    41    16    50 2   
    42    16    52 1   
    43    17    53 1   
    44    18    52 1   
    45    19    42 1   
    46    20    43 1   
    47    20    44 1   
    48    20    45 1   
    49    21    46 1   
    50    21    47 1   
    51    21    48 1   
    52    28    53 1   
    53    29    53 1   
    54    30    53 1   
    55    51    55 1   
    56    51    56 1   
    57    52    57 1   
@<TRIPOS>SUBSTRUCTURE
     1 UHF         1 TEMP              0 ****  ****    0 ROOT
