@<TRIPOS>MOLECULE
UHF
   57    57     1     0     0
SMALL
abcg2


@<TRIPOS>ATOM
      1 C          -17.3350   144.9920    44.4070 c          1 UHF       0.552100
      2 N          -16.7210   146.7110    46.0680 ns         1 UHF      -0.495900
      3 O          -16.3860   145.3070    43.7200 o          1 UHF      -0.517100
      4 CA         -17.7550   145.8070    45.6270 c3         1 UHF       0.023700
      5 CB         -19.0840   146.5550    45.3480 c3         1 UHF      -0.064700
      6 CAA        -15.3320   140.7140    47.0530 c3         1 UHF      -0.088100
      7 OAH        -20.6780   142.5520    43.0280 oh         1 UHF      -0.457100
      8 CAI        -19.2370   141.8740    41.3350 c          1 UHF       0.584900
      9 CAJ        -12.0660   146.1100    49.3940 ca         1 UHF      -0.053000
     10 CAK        -13.2300   146.0380    48.6500 ca         1 UHF      -0.173000
     11 CAL        -11.7600   148.3250    48.6290 ca         1 UHF       0.369900
     12 CAM        -15.8630   140.9870    45.6480 c3         1 UHF      -0.071400
     13 CAO        -17.2740   142.5030    44.1760 c3         1 UHF      -0.068400
     14 CAP        -18.7640   143.9260    42.6750 c3         1 UHF       0.142000
     15 NAQ        -12.8790   148.2850    47.9000 nb         1 UHF      -0.736000
     16 CAT        -15.7240   146.2920    46.9010 c          1 UHF       0.667100
     17 CAV        -11.2900   147.2710    49.4020 ca         1 UHF      -0.160300
     18 CAW        -13.6050   147.1640    47.9070 ca         1 UHF       0.487900
     19 CAY        -18.1610   143.7540    44.0820 c3         1 UHF      -0.183700
     20 CG1        -18.9410   147.6250    44.2630 c3         1 UHF      -0.091100
     21 CG2        -19.6450   147.1460    46.6410 c3         1 UHF      -0.091100
     22 HN         -16.5670   147.5390    45.5150 hn         1 UHF       0.317500
     23 HA         -17.9380   145.0940    46.4320 h1         1 UHF       0.102700
     24 HB         -19.7900   145.8030    44.9890 hc         1 UHF       0.058700
     25 HAA        -14.7020   139.8220    47.0760 hc         1 UHF       0.034367
     26 HAAA       -14.7360   141.5550    47.4150 hc         1 UHF       0.034367
     27 HAAB       -16.1540   140.5620    47.7580 hc         1 UHF       0.034367
     28 HAB         -9.2590   146.6870    49.8140 hc         1 UHF       0.043033
     29 HABA        -9.6100   148.3860    50.1470 hc         1 UHF       0.043033
     30 HABB       -10.1860   147.1240    51.2440 hc         1 UHF       0.043033
     31 HOAH       -20.9940   141.6940    42.6770 ho         1 UHF       0.477000
     32 HAI        -18.3200   142.1060    40.7820 h5         1 UHF       0.040200
     33 HAJ        -11.7580   145.2510    49.9780 ha         1 UHF       0.119000
     34 HAK        -13.8400   145.1510    48.6380 ha         1 UHF       0.159000
     35 HAL        -11.2060   149.2580    48.5930 h4         1 UHF       0.017100
     36 HAM        -15.0240   141.1050    44.9550 hc         1 UHF       0.035700
     37 HAMA       -16.4360   140.1230    45.2940 hc         1 UHF       0.035700
     38 HAO        -16.4430   142.6140    43.4740 hc         1 UHF       0.049700
     39 HAOA       -17.8590   141.6420    43.8450 hc         1 UHF       0.049700
     40 HAP        -19.4030   144.8100    42.6360 h1         1 UHF       0.066200
     41 HAPA       -17.9690   144.0470    41.9400 h1         1 UHF       0.066200
     42 HAY        -18.9740   143.6690    44.8050 hc         1 UHF       0.080700
     43 HG1        -19.9170   148.0600    44.0440 hc         1 UHF       0.040533
     44 HG1A       -18.2890   148.4400    44.5870 hc         1 UHF       0.040533
     45 HG1B       -18.5400   147.2170    43.3330 hc         1 UHF       0.040533
     46 HG2        -20.6070   147.6250    46.4490 hc         1 UHF       0.040533
     47 HG2A       -19.7930   146.3710    47.3960 hc         1 UHF       0.040533
     48 HG2B       -18.9690   147.8980    47.0500 hc         1 UHF       0.040533
     49 NBA        -19.5400   142.7870    42.2570 n          1 UHF      -0.292300
     50 OAF        -15.7210   145.1830    47.4300 o          1 UHF      -0.632100
     51 CAN        -16.7410   142.2350    45.5810 c3         1 UHF      -0.084400
     52 NAR        -14.7470   147.2420    47.1100 ns         1 UHF      -0.332900
     53 CAB        -10.0180   147.3760    50.1940 c3         1 UHF      -0.035800
     54 OAE        -19.9390   140.8780    41.1360 o          1 UHF      -0.615100
     55 HAN        -17.5860   142.1230    46.2700 hc         1 UHF       0.050700
     56 HANA       -16.1670   143.0950    45.9380 hc         1 UHF       0.050700
     57 HNAR       -14.8550   148.1420    46.6640 hn         1 UHF       0.163000
@<TRIPOS>BOND
     1     1     3 2   
     2     1     4 1   
     3     1    19 1   
     4     2     4 1   
     5     2    16 1   
     6     2    22 1   
     7     4     5 1   
     8     4    23 1   
     9     5    20 1   
    10     5    21 1   
    11     5    24 1   
    12     6    12 1   
    13     6    25 1   
    14     6    26 1   
    15     6    27 1   
    16     7    31 1   
    17     7    49 1   
    18     8    32 1   
    19     8    49 1   
    20     8    54 2   
    21     9    10 ar  
    22     9    17 ar  
    23     9    33 1   
    24    10    18 ar  
    25    10    34 1   
    26    11    15 ar  
    27    11    17 ar  
    28    11    35 1   
    29    12    36 1   
    30    12    37 1   
    31    12    51 1   
    32    13    19 1   
    33    13    38 1   
    34    13    39 1   
    35    13    51 1   
    36    14    19 1   
    37    14    40 1   
    38    14    41 1   
    39    14    49 1   
    40    15    18 ar  
    41    16    50 2   
    42    16    52 1   
    43    17    53 1   
    44    18    52 1   
    45    19    42 1   
    46    20    43 1   
    47    20    44 1   
    48    20    45 1   
    49    21    46 1   
    50    21    47 1   
    51    21    48 1   
    52    28    53 1   
    53    29    53 1   
    54    30    53 1   
    55    51    55 1   
    56    51    56 1   
    57    52    57 1   
@<TRIPOS>SUBSTRUCTURE
     1 UHF         1 TEMP              0 ****  ****    0 ROOT
