@<TRIPOS>MOLECULE
UHG
   30    32     1     0     0
SMALL
No Charge or Current Charge


@<TRIPOS>ATOM
      1 C4          21.6470   -21.8900    17.3320 ca         1 UHG      -0.127000
      2 C5          22.3310   -23.0000    17.8760 ca         1 UHG      -0.066000
      3 C6          22.6330   -24.0780    17.0270 cp         1 UHG      -0.125000
      4 C7          22.2610   -24.0330    15.6880 ca         1 UHG       0.000800
      5 C8          21.5840   -22.9500    15.1210 ca         1 UHG      -0.152000
      6 C10         23.9310   -27.3140    15.9400 ca         1 UHG      -0.145000
      7 C13         23.8880   -25.8970    18.4260 ca         1 UHG      -0.052000
      8 C12         24.4870   -27.1730    18.3310 ca         1 UHG       0.075000
      9 C11         24.5090   -27.8760    17.1000 ca         1 UHG      -0.093000
     10 C14         23.3140   -25.3440    17.2660 cp         1 UHG      -0.061000
     11 C9          23.3460   -26.0500    16.0660 ca         1 UHG      -0.006200
     12 N           22.7020   -25.2380    15.1210 na         1 UHG      -0.235600
     13 C3          21.2660   -21.8550    15.9600 ca         1 UHG       0.035700
     14 C1          20.5220   -20.6530    15.3720 c3         1 UHG      -0.178400
     15 C           19.3270   -20.1850    16.2400 c3         1 UHG      -0.054100
     16 C2          21.4990   -19.4960    15.0660 c          1 UHG       0.728000
     17 O           21.6600   -19.1770    13.8960 o          1 UHG      -0.717000
     18 O1          22.0870   -18.9600    15.9940 o          1 UHG      -0.717000
     19 H1          21.4200   -21.0480    17.9810 ha         1 UHG       0.123000
     20 H2          22.6190   -23.0180    18.9250 ha         1 UHG       0.100000
     21 H3          21.3130   -22.9540    14.0680 ha         1 UHG       0.123000
     22 H4          23.9410   -27.8420    14.9890 ha         1 UHG       0.110000
     23 H5          23.8700   -25.3580    19.3690 ha         1 UHG       0.126000
     24 H6          24.9750   -28.8570    17.0490 ha         1 UHG       0.113000
     25 H7          22.5710   -25.4910    14.1480 hn         1 UHG       0.347000
     26 H8          20.0910   -20.9660    14.4130 hc         1 UHG       0.040700
     27 H9          18.6450   -21.0210    16.4370 hc         1 UHG       0.016700
     28 H10         19.6590   -19.7770    17.2010 hc         1 UHG       0.016700
     29 H11         18.7620   -19.4030    15.7190 hc         1 UHG       0.016700
     30 Cl          25.2140   -27.9000    19.7580 cl         1 UHG      -0.243000
@<TRIPOS>BOND
     1     1     2 ar  
     2     1    13 ar  
     3     1    19 1   
     4     2     3 ar  
     5     2    20 1   
     6     3     4 ar  
     7     3    10 1   
     8     4     5 ar  
     9     4    12 1   
    10     5    13 ar  
    11     5    21 1   
    12     6     9 ar  
    13     6    11 ar  
    14     6    22 1   
    15     7     8 ar  
    16     7    10 ar  
    17     7    23 1   
    18     8     9 ar  
    19     8    30 1   
    20     9    24 1   
    21    10    11 ar  
    22    11    12 1   
    23    12    25 1   
    24    13    14 1   
    25    14    15 1   
    26    14    16 1   
    27    14    26 1   
    28    15    27 1   
    29    15    28 1   
    30    15    29 1   
    31    16    17 1   
    32    16    18 1   
@<TRIPOS>SUBSTRUCTURE
     1 UHG         1 TEMP              0 ****  ****    0 ROOT
