@<TRIPOS>MOLECULE
UHG
   30    32     1     0     0
SMALL
abcg2


@<TRIPOS>ATOM
      1 C4          21.5210   -21.9480    17.3620 ca         1 UHG      -0.127000
      2 C5          22.2070   -23.0140    17.9130 ca         1 UHG      -0.066000
      3 C6          22.5820   -24.0760    17.0940 cp         1 UHG      -0.125000
      4 C7          22.2470   -24.0370    15.7270 ca         1 UHG       0.000800
      5 C8          21.5510   -22.9680    15.1730 ca         1 UHG      -0.152000
      6 C10         23.9740   -27.1920    15.9040 ca         1 UHG      -0.145000
      7 C13         23.8610   -25.9090    18.4260 ca         1 UHG      -0.052000
      8 C12         24.4790   -27.1340    18.2620 ca         1 UHG       0.075000
      9 C11         24.5420   -27.7750    17.0220 ca         1 UHG      -0.093000
     10 C14         23.2870   -25.3130    17.3070 cp         1 UHG      -0.061000
     11 C9          23.3470   -25.9600    16.0550 ca         1 UHG      -0.006200
     12 N           22.7150   -25.1780    15.1250 na         1 UHG      -0.235600
     13 C3          21.1800   -21.9120    15.9970 ca         1 UHG       0.035700
     14 C1          20.4800   -20.7200    15.3930 c3         1 UHG      -0.178400
     15 C           19.4250   -20.1030    16.3020 c3         1 UHG      -0.054100
     16 C2          21.5840   -19.7060    14.9630 c          1 UHG       0.728000
     17 O           22.0210   -19.8330    13.8030 o          1 UHG      -0.717000
     18 O1          21.9580   -18.8870    15.8230 o          1 UHG      -0.717000
     19 H1          21.2370   -21.1260    18.0050 ha         1 UHG       0.123000
     20 H2          22.4510   -23.0190    18.9680 ha         1 UHG       0.100000
     21 H3          21.2960   -22.9590    14.1200 ha         1 UHG       0.123000
     22 H4          24.0220   -27.6880    14.9430 ha         1 UHG       0.110000
     23 H5          23.8240   -25.4280    19.3950 ha         1 UHG       0.126000
     24 H6          25.0370   -28.7320    16.9350 ha         1 UHG       0.113000
     25 H7          22.6240   -25.4000    14.1470 hn         1 UHG       0.347000
     26 H8          19.9810   -21.0660    14.4840 hc         1 UHG       0.040700
     27 H9          18.6860   -20.8450    16.6100 hc         1 UHG       0.016700
     28 H10         19.8550   -19.6640    17.2010 hc         1 UHG       0.016700
     29 H11         18.8920   -19.3060    15.7800 hc         1 UHG       0.016700
     30 CL          25.2060   -27.9060    19.6410 cl         1 UHG      -0.243000
@<TRIPOS>BOND
     1     1     2 ar  
     2     1    13 ar  
     3     1    19 1   
     4     2     3 ar  
     5     2    20 1   
     6     3     4 ar  
     7     3    10 1   
     8     4     5 ar  
     9     4    12 1   
    10     5    13 ar  
    11     5    21 1   
    12     6     9 ar  
    13     6    11 ar  
    14     6    22 1   
    15     7     8 ar  
    16     7    10 ar  
    17     7    23 1   
    18     8     9 ar  
    19     8    30 1   
    20     9    24 1   
    21    10    11 ar  
    22    11    12 1   
    23    12    25 1   
    24    13    14 1   
    25    14    15 1   
    26    14    16 1   
    27    14    26 1   
    28    15    27 1   
    29    15    28 1   
    30    15    29 1   
    31    16    17 1   
    32    16    18 1   
@<TRIPOS>SUBSTRUCTURE
     1 UHG         1 TEMP              0 ****  ****    0 ROOT
