@<TRIPOS>MOLECULE
UHH
   68    71     1     0     0
SMALL
No Charge or Current Charge


@<TRIPOS>ATOM
      1 C1           1.1210    -0.2210     0.2790 c2         1 UHH      -0.208200
      2 C2           2.1580     0.8430    -0.1130 c6         1 UHH      -0.000800
      3 C3           0.8780     1.2840    -2.3790 c6         1 UHH      -0.109400
      4 C4           0.9530     1.4020    -3.9300 c6         1 UHH       0.184300
      5 C5           2.0450     2.4490    -4.3710 c5         1 UHH      -0.070000
      6 C6           3.4100     2.0240    -3.7250 c5         1 UHH      -0.063700
      7 C7           4.4000     3.0420    -4.3450 c5         1 UHH      -0.070400
      8 C8           3.9030     3.1660    -5.8190 c5         1 UHH      -0.079400
      9 C9           2.5170     2.4130    -5.8870 c5         1 UHH      -0.049700
     10 C10          1.5340     3.8830    -3.9640 c3         1 UHH      -0.079100
     11 C11          1.6740     2.1840     0.5400 c3         1 UHH      -0.083100
     12 C12          1.4190    -1.4390     0.7690 c2         1 UHH      -0.208200
     13 C13          2.8290    -1.9240     1.0390 c6         1 UHH       0.202500
     14 C14          3.8740    -1.0610     0.2980 c6         1 UHH      -0.108400
     15 C15          3.5630     0.4540     0.4890 c6         1 UHH      -0.040700
     16 C16          4.7080     1.3800    -0.0310 c6         1 UHH      -0.106400
     17 C17          4.7780     1.5120    -1.5740 c6         1 UHH       0.177300
     18 C18          3.3870     1.9140    -2.1660 c6         1 UHH      -0.038700
     19 C19          2.2500     0.9340    -1.6950 c6         1 UHH      -0.041700
     20 C20          1.5660     2.9740    -7.0110 c3         1 UHH      -0.047700
     21 C21          0.1530     2.3330    -7.0080 c3         1 UHH      -0.088100
     22 C22          2.2220     2.8600    -8.4260 c3         1 UHH      -0.066400
     23 C23          1.4880     3.6120    -9.5700 c3         1 UHH      -0.158400
     24 C24          2.2380     3.6740   -10.9070 c          1 UHH       0.602100
     25 N1           1.6590     4.4290   -11.8650 nt         1 UHH      -0.617000
     26 O1           3.2840     3.0900   -11.1360 o          1 UHH      -0.604100
     27 O2           2.9430    -3.2890     0.6420 oh         1 UHH      -0.652000
     28 O3           5.2940     0.3080    -2.1600 oh         1 UHH      -0.659000
     29 O4           1.1910     0.0990    -4.4840 oh         1 UHH      -0.660000
     30 H1           0.0740     0.0550     0.1410 ha         1 UHH       0.174000
     31 H31          0.1310     0.5180    -2.1330 hc         1 UHH       0.049700
     32 H32          0.4740     2.2190    -1.9740 hc         1 UHH       0.049700
     33 H4          -0.0330     1.7520    -4.2600 h1         1 UHH       0.069700
     34 H6           3.6890     1.0200    -4.0660 hc         1 UHH       0.059700
     35 H71          5.4360     2.6890    -4.2930 hc         1 UHH       0.041200
     36 H72          4.3710     4.0080    -3.8280 hc         1 UHH       0.041200
     37 H81          3.8100     4.2210    -6.1010 hc         1 UHH       0.043200
     38 H82          4.6240     2.7220    -6.5150 hc         1 UHH       0.043200
     39 H9           2.7110     1.3740    -6.1820 hc         1 UHH       0.060700
     40 H101         1.4750     4.0180    -2.8800 hc         1 UHH       0.032367
     41 H102         2.1730     4.6870    -4.3440 hc         1 UHH       0.032367
     42 H103         0.5310     4.0710    -4.3650 hc         1 UHH       0.032367
     43 H111         1.6570     2.1010     1.6330 hc         1 UHH       0.034367
     44 H112         2.3190     3.0340     0.2950 hc         1 UHH       0.034367
     45 H113         0.6550     2.4490     0.2370 hc         1 UHH       0.034367
     46 H12          0.6230    -2.1400     1.0240 ha         1 UHH       0.187000
     47 H13          3.0140    -1.8340     2.1200 h1         1 UHH       0.031700
     48 H141         4.8770    -1.2940     0.6800 hc         1 UHH       0.053700
     49 H142         3.8740    -1.3310    -0.7650 hc         1 UHH       0.053700
     50 H15          3.5150     0.6110     1.5760 hc         1 UHH       0.043700
     51 H161         4.5740     2.3840     0.3950 hc         1 UHH       0.043700
     52 H162         5.6750     1.0350     0.3600 hc         1 UHH       0.043700
     53 H17          5.4800     2.3300    -1.7950 h1         1 UHH       0.029700
     54 H18          3.1630     2.9170    -1.7820 hc         1 UHH       0.051700
     55 H19          2.5200    -0.0660    -2.0570 hc         1 UHH       0.063700
     56 H20          1.4210     4.0450    -6.8220 hc         1 UHH       0.038700
     57 H211         0.2160     1.2390    -7.0360 hc         1 UHH       0.033700
     58 H212        -0.4480     2.6600    -7.8620 hc         1 UHH       0.033700
     59 H213        -0.4100     2.6350    -6.1210 hc         1 UHH       0.033700
     60 H221         2.3220     1.8010    -8.6960 hc         1 UHH       0.056700
     61 H222         3.2410     3.2630    -8.3830 hc         1 UHH       0.056700
     62 H231         1.2240     4.6370    -9.2820 hc         1 UHH       0.053700
     63 H232         0.4990     3.1910    -9.7830 hc         1 UHH       0.053700
     64 HN11         0.7910     4.9090   -11.6740 hn         1 UHH       0.311000
     65 HN12         2.1030     4.5070   -12.7680 hn         1 UHH       0.311000
     66 HO2          3.8640    -3.5600     0.8450 ho         1 UHH       0.439000
     67 HO3          6.1650     0.1450    -1.7400 ho         1 UHH       0.439000
     68 HO4          2.0720    -0.1730    -4.1560 ho         1 UHH       0.445000
@<TRIPOS>BOND
     1     1     2 1   
     2     1    12 2   
     3     1    30 1   
     4     2    11 1   
     5     2    15 1   
     6     2    19 1   
     7     3     4 1   
     8     3    19 1   
     9     3    31 1   
    10     3    32 1   
    11     4     5 1   
    12     4    29 1   
    13     4    33 1   
    14     5     6 1   
    15     5     9 1   
    16     5    10 1   
    17     6     7 1   
    18     6    18 1   
    19     6    34 1   
    20     7     8 1   
    21     7    35 1   
    22     7    36 1   
    23     8     9 1   
    24     8    37 1   
    25     8    38 1   
    26     9    20 1   
    27     9    39 1   
    28    10    40 1   
    29    10    41 1   
    30    10    42 1   
    31    11    43 1   
    32    11    44 1   
    33    11    45 1   
    34    12    13 1   
    35    12    46 1   
    36    13    14 1   
    37    13    27 1   
    38    13    47 1   
    39    14    15 1   
    40    14    48 1   
    41    14    49 1   
    42    15    16 1   
    43    15    50 1   
    44    16    17 1   
    45    16    51 1   
    46    16    52 1   
    47    17    18 1   
    48    17    28 1   
    49    17    53 1   
    50    18    19 1   
    51    18    54 1   
    52    19    55 1   
    53    20    21 1   
    54    20    22 1   
    55    20    56 1   
    56    21    57 1   
    57    21    58 1   
    58    21    59 1   
    59    22    23 1   
    60    22    60 1   
    61    22    61 1   
    62    23    24 1   
    63    23    62 1   
    64    23    63 1   
    65    24    25 1   
    66    24    26 2   
    67    25    64 1   
    68    25    65 1   
    69    27    66 1   
    70    28    67 1   
    71    29    68 1   
@<TRIPOS>SUBSTRUCTURE
     1 UHH         1 TEMP              0 ****  ****    0 ROOT
