@<TRIPOS>MOLECULE
UHH
   68    71     1     0     0
SMALL
bcc


@<TRIPOS>ATOM
      1 C1           1.1740    -0.2470     0.1740 c2         1 UHH      -0.158200
      2 C2           2.1460     0.8420    -0.2110 c6         1 UHH      -0.000800
      3 C3           0.9290     1.2180    -2.4490 c6         1 UHH      -0.109400
      4 C4           1.0040     1.3060    -3.9790 c6         1 UHH       0.161100
      5 C5           2.0690     2.3340    -4.4060 c5         1 UHH      -0.070000
      6 C6           3.4020     1.9400    -3.7390 c5         1 UHH      -0.063700
      7 C7           4.4200     2.8570    -4.4020 c5         1 UHH      -0.070400
      8 C8           3.9150     2.9730    -5.8520 c5         1 UHH      -0.079400
      9 C9           2.4950     2.3460    -5.8960 c5         1 UHH      -0.049700
     10 C10          1.6090     3.7370    -3.9910 c3         1 UHH      -0.079100
     11 C11          1.6030     2.1550     0.3750 c3         1 UHH      -0.083100
     12 C12          1.4990    -1.4010     0.7490 c2         1 UHH      -0.158200
     13 C13          2.9060    -1.7930     1.0820 c6         1 UHH       0.179300
     14 C14          3.8830    -0.9460     0.2820 c6         1 UHH      -0.108400
     15 C15          3.5240     0.5330     0.4180 c6         1 UHH      -0.040700
     16 C16          4.6090     1.4820    -0.0900 c6         1 UHH      -0.106400
     17 C17          4.7160     1.5760    -1.6060 c6         1 UHH       0.154100
     18 C18          3.3560     1.8990    -2.2180 c6         1 UHH      -0.038700
     19 C19          2.2670     0.9120    -1.7620 c6         1 UHH      -0.041700
     20 C20          1.5890     3.0360    -6.9270 c3         1 UHH      -0.047700
     21 C21          0.1630     2.4900    -6.9300 c3         1 UHH      -0.088100
     22 C22          2.2250     2.9120    -8.3190 c3         1 UHH      -0.066400
     23 C23          1.5040     3.7040    -9.3990 c3         1 UHH      -0.158400
     24 C24          2.2380     3.7390   -10.7260 c          1 UHH       0.669100
     25 N1           1.6400     4.4840   -11.6720 nt         1 UHH      -0.684000
     26 O1           3.2840     3.1380   -10.9270 o          1 UHH      -0.604100
     27 O2           3.0390    -3.1790     0.8230 oh         1 UHH      -0.589800
     28 O3           5.2090     0.3870    -2.1930 oh         1 UHH      -0.596800
     29 O4           1.1840     0.0300    -4.5630 oh         1 UHH      -0.597800
     30 H1           0.1230    -0.0430    -0.0070 ha         1 UHH       0.124000
     31 H31          0.1930     0.4490    -2.2020 hc         1 UHH       0.049700
     32 H32          0.5170     2.1580    -2.0750 hc         1 UHH       0.049700
     33 H4           0.0210     1.6310    -4.3290 h1         1 UHH       0.069700
     34 H6           3.6380     0.9240    -4.0880 hc         1 UHH       0.059700
     35 H71          5.4360     2.4650    -4.3430 hc         1 UHH       0.041200
     36 H72          4.4310     3.8340    -3.9110 hc         1 UHH       0.041200
     37 H81          3.8830     4.0180    -6.1720 hc         1 UHH       0.043200
     38 H82          4.5860     2.4650    -6.5450 hc         1 UHH       0.043200
     39 H9           2.5940     1.3010    -6.2130 hc         1 UHH       0.060700
     40 H101         1.6030     3.8860    -2.9120 hc         1 UHH       0.032367
     41 H102         2.2420     4.5170    -4.4170 hc         1 UHH       0.032367
     42 H103         0.5940     3.9310    -4.3420 hc         1 UHH       0.032367
     43 H111         1.6090     2.1080     1.4660 hc         1 UHH       0.034367
     44 H112         2.1950     3.0230     0.0820 hc         1 UHH       0.034367
     45 H113         0.5740     2.3410     0.0670 hc         1 UHH       0.034367
     46 H12          0.7150    -2.0990     1.0280 ha         1 UHH       0.137000
     47 H13          3.0720    -1.5990     2.1540 h1         1 UHH       0.031700
     48 H141         4.9030    -1.1150     0.6420 hc         1 UHH       0.053700
     49 H142         3.8580    -1.2690    -0.7600 hc         1 UHH       0.053700
     50 H15          3.4230     0.7270     1.4950 hc         1 UHH       0.043700
     51 H161         4.4130     2.4890     0.2900 hc         1 UHH       0.043700
     52 H162         5.5770     1.1950     0.3370 hc         1 UHH       0.043700
     53 H17          5.3960     2.4100    -1.8370 h1         1 UHH       0.029700
     54 H18          3.1030     2.9020    -1.8530 hc         1 UHH       0.051700
     55 H19          2.5790    -0.0880    -2.0890 hc         1 UHH       0.063700
     56 H20          1.5450     4.1060    -6.6860 hc         1 UHH       0.038700
     57 H211         0.1560     1.4030    -7.0410 hc         1 UHH       0.033700
     58 H212        -0.4270     2.9080    -7.7470 hc         1 UHH       0.033700
     59 H213        -0.3700     2.7350    -6.0130 hc         1 UHH       0.033700
     60 H221         2.2690     1.8540    -8.5990 hc         1 UHH       0.056700
     61 H222         3.2590     3.2570    -8.2710 hc         1 UHH       0.056700
     62 H231         1.3420     4.7340    -9.0640 hc         1 UHH       0.053700
     63 H232         0.5070     3.2990    -9.5910 hc         1 UHH       0.053700
     64 HN11         0.7710     4.9600   -11.5020 hn         1 UHH       0.311000
     65 HN12         2.0330     4.5500   -12.5960 hn         1 UHH       0.311000
     66 HO2          3.9130    -3.4520     1.1190 ho         1 UHH       0.400000
     67 HO3          6.0200     0.1420    -1.7370 ho         1 UHH       0.400000
     68 HO4          2.0130    -0.3460    -4.2530 ho         1 UHH       0.406000
@<TRIPOS>BOND
     1     1     2 1   
     2     1    12 2   
     3     1    30 1   
     4     2    11 1   
     5     2    15 1   
     6     2    19 1   
     7     3     4 1   
     8     3    19 1   
     9     3    31 1   
    10     3    32 1   
    11     4     5 1   
    12     4    29 1   
    13     4    33 1   
    14     5     6 1   
    15     5     9 1   
    16     5    10 1   
    17     6     7 1   
    18     6    18 1   
    19     6    34 1   
    20     7     8 1   
    21     7    35 1   
    22     7    36 1   
    23     8     9 1   
    24     8    37 1   
    25     8    38 1   
    26     9    20 1   
    27     9    39 1   
    28    10    40 1   
    29    10    41 1   
    30    10    42 1   
    31    11    43 1   
    32    11    44 1   
    33    11    45 1   
    34    12    13 1   
    35    12    46 1   
    36    13    14 1   
    37    13    27 1   
    38    13    47 1   
    39    14    15 1   
    40    14    48 1   
    41    14    49 1   
    42    15    16 1   
    43    15    50 1   
    44    16    17 1   
    45    16    51 1   
    46    16    52 1   
    47    17    18 1   
    48    17    28 1   
    49    17    53 1   
    50    18    19 1   
    51    18    54 1   
    52    19    55 1   
    53    20    21 1   
    54    20    22 1   
    55    20    56 1   
    56    21    57 1   
    57    21    58 1   
    58    21    59 1   
    59    22    23 1   
    60    22    60 1   
    61    22    61 1   
    62    23    24 1   
    63    23    62 1   
    64    23    63 1   
    65    24    25 1   
    66    24    26 2   
    67    25    64 1   
    68    25    65 1   
    69    27    66 1   
    70    28    67 1   
    71    29    68 1   
@<TRIPOS>SUBSTRUCTURE
     1 UHH         1 TEMP              0 ****  ****    0 ROOT
