@<TRIPOS>MOLECULE
UHI
   48    51     1     0     0
SMALL
No Charge or Current Charge


@<TRIPOS>ATOM
      1 C22         27.6600     5.0110    43.2330 cx         1 UHI      -0.139700
      2 C18         26.2000     7.1930    39.7270 ca         1 UHI      -0.227000
      3 C11         28.0180     7.2000    37.5900 ca         1 UHI       0.027000
      4 C12         26.7610     7.8200    37.4490 ca         1 UHI      -0.325500
      5 C10         28.3950     6.6010    38.8110 ca         1 UHI      -0.089800
      6 C17         25.8540     7.8220    38.5220 ca         1 UHI       0.028000
      7 C21         26.9260     5.8230    42.1740 c3         1 UHI       0.193600
      8 C23         28.7530     5.6350    44.0710 cx         1 UHI      -0.117900
      9 C25         30.1580     5.1600    37.8690 cc         1 UHI      -0.025400
     10 C15         25.5200     7.2670    34.9880 c3         1 UHI      -0.341100
     11 C19         27.4590     6.5710    39.8760 ca         1 UHI       0.212100
     12 C02         32.2730     4.6110    38.9920 c          1 UHI       0.564600
     13 C03         31.8870     5.5650    40.0920 ca         1 UHI      -0.164600
     14 C04         32.7780     5.8040    41.1620 ca         1 UHI      -0.046000
     15 C05         32.4600     6.7380    42.1580 ca         1 UHI      -0.134000
     16 C06         31.2600     7.4550    42.0820 ca         1 UHI      -0.080000
     17 C07         30.3660     7.2160    41.0260 ca         1 UHI      -0.114000
     18 C08         30.6480     6.2420    40.0390 ca         1 UHI       0.035200
     19 C09         29.7260     5.9520    38.9140 cd         1 UHI      -0.094400
     20 C24         27.4340     5.2610    44.7070 cx         1 UHI      -0.117900
     21 N26         31.3890     4.4990    37.8950 n          1 UHI      -0.290000
     22 O01         33.3190     3.9730    39.0390 o          1 UHI      -0.557000
     23 O14         27.5360     8.9340    35.1530 o          1 UHI      -0.531500
     24 O16         25.2720     9.6070    36.1430 o          1 UHI      -0.531500
     25 O20         27.7770     5.8620    41.0200 os         1 UHI      -0.334100
     26 S13         26.3090     8.5990    35.8880 sy         1 UHI       1.090500
     27 H221        27.8050     3.9770    42.9300 hc         1 UHI       0.093700
     28 H181        25.4670     7.1820    40.5270 ha         1 UHI       0.125000
     29 H111        28.7220     7.2110    36.7590 ha         1 UHI       0.147000
     30 H171        24.8760     8.2910    38.4250 ha         1 UHI       0.126000
     31 H211        26.7330     6.8370    42.5480 h1         1 UHI       0.042200
     32 H212        25.9670     5.3430    41.9400 h1         1 UHI       0.042200
     33 H232        29.6230     5.0250    44.3010 hc         1 UHI       0.076200
     34 H231        28.9650     6.6930    43.9300 hc         1 UHI       0.076200
     35 H251        29.5760     4.9340    36.9820 h4         1 UHI       0.198000
     36 H151        24.6550     6.9290    35.5670 h1         1 UHI       0.101367
     37 H152        25.2080     7.6530    34.0120 h1         1 UHI       0.101367
     38 H153        26.2470     6.4570    34.8700 h1         1 UHI       0.101367
     39 H041        33.7290     5.2760    41.2160 ha         1 UHI       0.136000
     40 H051        33.1540     6.9210    42.9750 ha         1 UHI       0.118000
     41 H061        31.0220     8.2000    42.8380 ha         1 UHI       0.113000
     42 H071        29.4590     7.8100    40.9810 ha         1 UHI       0.118000
     43 H242        26.7640     6.0680    44.9940 hc         1 UHI       0.076200
     44 H241        27.4180     4.3990    45.3700 hc         1 UHI       0.076200
     45 H273        31.8280     2.5680    37.1370 h1         1 UHI       0.053367
     46 H272        31.0530     3.6630    35.9600 h1         1 UHI       0.053367
     47 H271        32.7640     3.8990    36.3960 h1         1 UHI       0.053367
     48 C27         31.7790     3.6050    36.7800 c3         1 UHI       0.085300
@<TRIPOS>BOND
     1     1     7 1   
     2     1     8 1   
     3     1    20 1   
     4     1    27 1   
     5     2     6 ar  
     6     2    11 ar  
     7     2    28 1   
     8     3     4 ar  
     9     3     5 ar  
    10     3    29 1   
    11     4     6 ar  
    12     4    26 1   
    13     5    11 ar  
    14     5    19 1   
    15     6    30 1   
    16     7    25 1   
    17     7    31 1   
    18     7    32 1   
    19     8    20 1   
    20     8    33 1   
    21     8    34 1   
    22     9    19 2   
    23     9    21 1   
    24     9    35 1   
    25    10    26 1   
    26    10    36 1   
    27    10    37 1   
    28    10    38 1   
    29    11    25 1   
    30    12    13 1   
    31    12    21 1   
    32    12    22 2   
    33    13    14 ar  
    34    13    18 ar  
    35    14    15 ar  
    36    14    39 1   
    37    15    16 ar  
    38    15    40 1   
    39    16    17 ar  
    40    16    41 1   
    41    17    18 ar  
    42    17    42 1   
    43    18    19 1   
    44    20    43 1   
    45    20    44 1   
    46    21    48 1   
    47    23    26 2   
    48    24    26 2   
    49    45    48 1   
    50    46    48 1   
    51    47    48 1   
@<TRIPOS>SUBSTRUCTURE
     1 UHI         1 TEMP              0 ****  ****    0 ROOT
