@<TRIPOS>MOLECULE
UHI
   48    51     1     0     0
SMALL
abcg2


@<TRIPOS>ATOM
      1 C22         27.6100     4.7990    43.1010 cx         1 UHI      -0.139700
      2 C18         26.1960     6.9790    39.6720 ca         1 UHI      -0.227000
      3 C11         28.0950     7.1890    37.6480 ca         1 UHI       0.027000
      4 C12         26.8480     7.7900    37.5090 ca         1 UHI      -0.325500
      5 C10         28.4190     6.4870    38.8000 ca         1 UHI      -0.089800
      6 C17         25.9010     7.6960    38.5230 ca         1 UHI       0.028000
      7 C21         26.9150     5.5670    42.0240 c3         1 UHI       0.193600
      8 C23         28.6250     5.4970    43.9630 cx         1 UHI      -0.117900
      9 C25         30.1670     4.9230    38.0900 cc         1 UHI      -0.025400
     10 C15         25.2820     7.7070    35.1800 c3         1 UHI      -0.341100
     11 C19         27.4460     6.3670    39.8150 ca         1 UHI       0.212100
     12 C02         32.3660     4.6910    39.0690 c          1 UHI       0.564600
     13 C03         31.9760     5.7390    40.0140 ca         1 UHI      -0.164600
     14 C04         32.9050     6.1590    40.9780 ca         1 UHI      -0.046000
     15 C05         32.5850     7.1590    41.8700 ca         1 UHI      -0.134000
     16 C06         31.3230     7.7690    41.8060 ca         1 UHI      -0.080000
     17 C07         30.3980     7.3680    40.8660 ca         1 UHI      -0.114000
     18 C08         30.6970     6.3370    39.9550 ca         1 UHI       0.035200
     19 C09         29.7660     5.8870    38.9510 cd         1 UHI      -0.094400
     20 C24         27.2850     5.1220    44.5350 cx         1 UHI      -0.117900
     21 N26         31.4100     4.3410    38.1350 n          1 UHI      -0.290000
     22 O01         33.4690     4.1360    39.0680 o          1 UHI      -0.557000
     23 O14         27.6830     8.7640    35.2280 o          1 UHI      -0.531500
     24 O16         25.8420     9.9510    36.4120 o          1 UHI      -0.531500
     25 O20         27.8000     5.6380    40.8880 os         1 UHI      -0.334100
     26 S13         26.4800     8.6990    36.0400 sy         1 UHI       1.090500
     27 H221        27.7980     3.7580    42.8680 hc         1 UHI       0.093700
     28 H181        25.4510     6.8970    40.4480 ha         1 UHI       0.125000
     29 H111        28.8300     7.2900    36.8620 ha         1 UHI       0.147000
     30 H171        24.9360     8.1760    38.4240 ha         1 UHI       0.126000
     31 H211        26.6860     6.5820    42.3610 h1         1 UHI       0.042200
     32 H212        25.9850     5.0790    41.7200 h1         1 UHI       0.042200
     33 H232        29.4930     4.9330    44.2790 hc         1 UHI       0.076200
     34 H231        28.8140     6.5430    43.7600 hc         1 UHI       0.076200
     35 H251        29.5140     4.5510    37.3140 h4         1 UHI       0.198000
     36 H151        24.4020     7.5950    35.8100 h1         1 UHI       0.101367
     37 H152        25.0340     8.2460    34.2650 h1         1 UHI       0.101367
     38 H153        25.7290     6.7420    34.9540 h1         1 UHI       0.101367
     39 H041        33.8760     5.6830    41.0000 ha         1 UHI       0.136000
     40 H051        33.3040     7.4790    42.6130 ha         1 UHI       0.118000
     41 H061        31.0730     8.5610    42.5010 ha         1 UHI       0.113000
     42 H071        29.4320     7.8500    40.8260 ha         1 UHI       0.118000
     43 H242        26.5750     5.9180    44.7210 hc         1 UHI       0.076200
     44 H241        27.2350     4.3000    45.2360 hc         1 UHI       0.076200
     45 H273        32.0000     2.3730    37.6900 h1         1 UHI       0.053367
     46 H272        30.9110     3.1380    36.5100 h1         1 UHI       0.053367
     47 H271        32.6260     3.6060    36.5850 h1         1 UHI       0.053367
     48 C27         31.7590     3.2990    37.1690 c3         1 UHI       0.085300
@<TRIPOS>BOND
     1     1     7 1   
     2     1     8 1   
     3     1    20 1   
     4     1    27 1   
     5     2     6 ar  
     6     2    11 ar  
     7     2    28 1   
     8     3     4 ar  
     9     3     5 ar  
    10     3    29 1   
    11     4     6 ar  
    12     4    26 1   
    13     5    11 ar  
    14     5    19 1   
    15     6    30 1   
    16     7    25 1   
    17     7    31 1   
    18     7    32 1   
    19     8    20 1   
    20     8    33 1   
    21     8    34 1   
    22     9    19 2   
    23     9    21 1   
    24     9    35 1   
    25    10    26 1   
    26    10    36 1   
    27    10    37 1   
    28    10    38 1   
    29    11    25 1   
    30    12    13 1   
    31    12    21 1   
    32    12    22 2   
    33    13    14 ar  
    34    13    18 ar  
    35    14    15 ar  
    36    14    39 1   
    37    15    16 ar  
    38    15    40 1   
    39    16    17 ar  
    40    16    41 1   
    41    17    18 ar  
    42    17    42 1   
    43    18    19 1   
    44    20    43 1   
    45    20    44 1   
    46    21    48 1   
    47    23    26 2   
    48    24    26 2   
    49    45    48 1   
    50    46    48 1   
    51    47    48 1   
@<TRIPOS>SUBSTRUCTURE
     1 UHI         1 TEMP              0 ****  ****    0 ROOT
