@<TRIPOS>MOLECULE
UHJ
   39    41     1     0     0
SMALL
abcg2


@<TRIPOS>ATOM
      1 C01         13.9110   -11.3460    -6.6930 c3         1 UHJ      -0.383100
      2 C06         14.8070    -8.2360    -7.2540 ca         1 UHJ       0.239000
      3 C07         13.9370    -8.0860    -8.3290 ca         1 UHJ      -0.108500
      4 C08         13.0790    -7.0000    -8.3830 ca         1 UHJ      -0.086000
      5 C09         13.0570    -6.0560    -7.3560 cp         1 UHJ      -0.033000
      6 C10         13.9350    -6.2200    -6.2840 ca         1 UHJ      -0.086000
      7 C11         14.8090    -7.2920    -6.2340 ca         1 UHJ      -0.108500
      8 C12         12.1320    -4.9110    -7.4050 cp         1 UHJ      -0.091000
      9 C13         10.8370    -5.0440    -7.8930 ca         1 UHJ      -0.040000
     10 C14          9.9860    -3.9400    -7.9190 ca         1 UHJ      -0.130800
     11 C15          8.6200    -3.9480    -8.4110 ce         1 UHJ      -0.042200
     12 C16          8.0170    -4.8210    -9.2260 cd         1 UHJ      -0.100600
     13 C18          7.1760    -6.5500   -10.8840 cc         1 UHJ       0.534800
     14 C21          6.5980    -4.6300    -9.6370 c          1 UHJ       0.586200
     15 C23         10.4880    -2.7390    -7.4090 ca         1 UHJ       0.366900
     16 C25         12.5190    -3.6480    -6.9560 ca         1 UHJ       0.365900
     17 N05         15.7100    -9.3290    -7.2090 nu         1 UHJ      -0.872100
     18 N19          6.9370    -7.4730   -11.7010 n2         1 UHJ      -0.785100
     19 N20          6.2460    -5.6020   -10.5240 ns         1 UHJ      -0.433400
     20 N24         11.7180    -2.5930    -6.9500 nb         1 UHJ      -0.661000
     21 O03         16.5170   -11.5190    -6.3490 o          1 UHJ      -0.522000
     22 O04         15.1960   -10.0020    -4.8410 o          1 UHJ      -0.522000
     23 O22          5.8680    -3.7470    -9.2520 o          1 UHJ      -0.497000
     24 S02         15.4230   -10.5850    -6.1520 s6         1 UHJ       1.188100
     25 S17          8.6900    -6.2370   -10.0060 ss         1 UHJ      -0.260800
     26 H013        13.6840   -12.1630    -6.0100 h1         1 UHJ       0.103367
     27 H011        13.1070   -10.6140    -6.6710 h1         1 UHJ       0.103367
     28 H012        14.0460   -11.7310    -7.7020 h1         1 UHJ       0.103367
     29 H071        13.9340    -8.8130    -9.1310 ha         1 UHJ       0.131500
     30 H081        12.4320    -6.8870    -9.2430 ha         1 UHJ       0.123500
     31 H101        13.9320    -5.5100    -5.4670 ha         1 UHJ       0.123500
     32 H111        15.4990    -7.3860    -5.4080 ha         1 UHJ       0.131500
     33 H131        10.4910    -6.0240    -8.1920 ha         1 UHJ       0.130000
     34 H151         8.0090    -3.1090    -8.0930 ha         1 UHJ       0.208000
     35 H231         9.8510    -1.8600    -7.3850 h4         1 UHJ       0.027100
     36 H251        13.5270    -3.4870    -6.5900 h4         1 UHJ       0.028100
     37 H051        16.0010    -9.6710    -8.1190 hn         1 UHJ       0.488000
     38 H191         7.7300    -8.0830   -11.8590 hn         1 UHJ       0.422400
     39 H201         5.3190    -5.6340   -10.9280 hn         1 UHJ       0.358500
@<TRIPOS>BOND
     1     1    24 1   
     2     1    26 1   
     3     1    27 1   
     4     1    28 1   
     5     2     3 ar  
     6     2     7 ar  
     7     2    17 1   
     8     3     4 ar  
     9     3    29 1   
    10     4     5 ar  
    11     4    30 1   
    12     5     6 ar  
    13     5     8 1   
    14     6     7 ar  
    15     6    31 1   
    16     7    32 1   
    17     8     9 ar  
    18     8    16 ar  
    19     9    10 ar  
    20     9    33 1   
    21    10    11 1   
    22    10    15 ar  
    23    11    12 2   
    24    11    34 1   
    25    12    14 1   
    26    12    25 1   
    27    13    18 2   
    28    13    19 1   
    29    13    25 1   
    30    14    19 1   
    31    14    23 2   
    32    15    20 ar  
    33    15    35 1   
    34    16    20 ar  
    35    16    36 1   
    36    17    24 1   
    37    17    37 1   
    38    18    38 1   
    39    19    39 1   
    40    21    24 2   
    41    22    24 2   
@<TRIPOS>SUBSTRUCTURE
     1 UHJ         1 TEMP              0 ****  ****    0 ROOT
