@<TRIPOS>MOLECULE
UHJ
   39    41     1     0     0
SMALL
No Charge or Current Charge


@<TRIPOS>ATOM
      1 C01         14.9230   -10.9720    -5.1500 c3         1 UHJ      -0.383100
      2 C06         14.4640    -8.6460    -7.4930 ca         1 UHJ       0.239000
      3 C07         13.5080    -8.4250    -8.4980 ca         1 UHJ      -0.108500
      4 C08         12.6680    -7.2990    -8.4580 ca         1 UHJ      -0.086000
      5 C09         12.7620    -6.3520    -7.4090 cp         1 UHJ      -0.033000
      6 C10         13.7370    -6.5800    -6.4060 ca         1 UHJ      -0.086000
      7 C11         14.5760    -7.7080    -6.4470 ca         1 UHJ      -0.108500
      8 C12         11.8690    -5.1510    -7.3660 cp         1 UHJ      -0.091000
      9 C13         10.5410    -5.2000    -7.8550 ca         1 UHJ      -0.040000
     10 C14          9.7360    -4.0460    -7.8060 ca         1 UHJ      -0.130800
     11 C15          8.3270    -4.0490    -8.2970 ce         1 UHJ      -0.042200
     12 C16          7.7910    -4.6110    -9.4390 cd         1 UHJ      -0.100600
     13 C18          7.3290    -5.7170   -11.5770 cc         1 UHJ       0.534800
     14 C21          6.3670    -4.5120    -9.8390 c          1 UHJ       0.586200
     15 C23         10.2810    -2.8760    -7.2400 ca         1 UHJ       0.366900
     16 C25         12.3100    -3.9130    -6.8310 ca         1 UHJ       0.365900
     17 N05         15.2720    -9.7810    -7.5830 nu         1 UHJ      -0.872100
     18 N19          7.3780    -6.3580   -12.6870 n2         1 UHJ      -0.785100
     19 N20          6.2340    -5.1570   -11.0220 ns         1 UHJ      -0.433400
     20 N24         11.5430    -2.8000    -6.7630 nb         1 UHJ      -0.661000
     21 O03         16.5640   -11.8280    -7.0390 o          1 UHJ      -0.522000
     22 O04         17.1050    -9.6350    -5.8710 o          1 UHJ      -0.522000
     23 O22          5.4590    -3.9590    -9.2390 o          1 UHJ      -0.497000
     24 S02         16.1260   -10.5840    -6.4050 s6         1 UHJ       1.188100
     25 S17          8.7810    -5.5000   -10.6240 ss         1 UHJ      -0.260800
     26 H013        15.4400   -11.5320    -4.3640 h1         1 UHJ       0.103367
     27 H011        14.5210   -10.0300    -4.7660 h1         1 UHJ       0.103367
     28 H012        14.1410   -11.5770    -5.6180 h1         1 UHJ       0.103367
     29 H071        13.4130    -9.1300    -9.3200 ha         1 UHJ       0.131500
     30 H081        11.9480    -7.1550    -9.2600 ha         1 UHJ       0.123500
     31 H101        13.8400    -5.8830    -5.5770 ha         1 UHJ       0.123500
     32 H111        15.3100    -7.8360    -5.6590 ha         1 UHJ       0.131500
     33 H131        10.1350    -6.1310    -8.2410 ha         1 UHJ       0.130000
     34 H151         7.6240    -3.4840    -7.6810 ha         1 UHJ       0.208000
     35 H231         9.6860    -1.9660    -7.1720 h4         1 UHJ       0.027100
     36 H251        13.3250    -3.8070    -6.4490 h4         1 UHJ       0.028100
     37 H051        15.0610   -10.4690    -8.2940 hn         1 UHJ       0.488000
     38 H191         8.3500    -6.6630   -12.8410 hn         1 UHJ       0.422400
     39 H201         5.3320    -5.2050   -11.4690 hn         1 UHJ       0.358500
@<TRIPOS>BOND
     1     1    24 1   
     2     1    26 1   
     3     1    27 1   
     4     1    28 1   
     5     2     3 ar  
     6     2     7 ar  
     7     2    17 1   
     8     3     4 ar  
     9     3    29 1   
    10     4     5 ar  
    11     4    30 1   
    12     5     6 ar  
    13     5     8 1   
    14     6     7 ar  
    15     6    31 1   
    16     7    32 1   
    17     8     9 ar  
    18     8    16 ar  
    19     9    10 ar  
    20     9    33 1   
    21    10    11 1   
    22    10    15 ar  
    23    11    12 2   
    24    11    34 1   
    25    12    14 1   
    26    12    25 1   
    27    13    18 2   
    28    13    19 1   
    29    13    25 1   
    30    14    19 1   
    31    14    23 2   
    32    15    20 ar  
    33    15    35 1   
    34    16    20 ar  
    35    16    36 1   
    36    17    24 1   
    37    17    37 1   
    38    18    38 1   
    39    19    39 1   
    40    21    24 2   
    41    22    24 2   
@<TRIPOS>SUBSTRUCTURE
     1 UHJ         1 TEMP              0 ****  ****    0 ROOT
