@<TRIPOS>MOLECULE
UHL
   19    19     1     0     0
SMALL
abcg2


@<TRIPOS>ATOM
      1 C01         13.0150    27.1340   -16.6550 c3         1 UHL       0.147900
      2 C03         14.1980    25.3370   -15.7530 c3         1 UHL       0.167600
      3 C04         14.7990    23.9890   -16.0950 c3         1 UHL      -0.096700
      4 C05         15.8970    24.0750   -17.0880 cc         1 UHL       0.415300
      5 C08         17.4020    23.3440   -18.3830 cc         1 UHL       0.646900
      6 N06         16.4860    25.0940   -17.5850 nd         1 UHL      -0.330000
      7 N07         17.4760    24.6330   -18.4290 nd         1 UHL      -0.430000
      8 N09         18.1010    22.4260   -19.0790 nv         1 UHL      -1.030900
      9 O02         13.5410    25.8520   -16.8790 os         1 UHL      -0.444000
     10 O10         16.4330    22.9190   -17.5600 os         1 UHL      -0.318000
     11 H1          12.5170    27.4580   -17.5690 h1         1 UHL       0.030033
     12 H2          12.2810    27.1440   -15.8400 h1         1 UHL       0.030033
     13 H3          13.7970    27.8630   -16.4100 h1         1 UHL       0.030033
     14 H4          14.9830    26.0210   -15.4030 h1         1 UHL       0.032200
     15 H5          13.4980    25.2030   -14.9170 h1         1 UHL       0.032200
     16 H6          14.0220    23.3140   -16.4620 hc         1 UHL       0.073200
     17 H7          15.1860    23.5380   -15.1760 hc         1 UHL       0.073200
     18 H8          18.9370    22.7700   -19.5240 hn         1 UHL       0.486000
     19 H9          18.2090    21.5140   -18.6630 hn         1 UHL       0.486000
@<TRIPOS>BOND
     1     1     9 1   
     2     1    11 1   
     3     1    12 1   
     4     1    13 1   
     5     2     3 1   
     6     2     9 1   
     7     2    14 1   
     8     2    15 1   
     9     3     4 1   
    10     3    16 1   
    11     3    17 1   
    12     4     6 2   
    13     4    10 1   
    14     5     7 2   
    15     5     8 1   
    16     5    10 1   
    17     6     7 1   
    18     8    18 1   
    19     8    19 1   
@<TRIPOS>SUBSTRUCTURE
     1 UHL         1 TEMP              0 ****  ****    0 ROOT
