@<TRIPOS>MOLECULE
UHL
   19    19     1     0     0
SMALL
No Charge or Current Charge


@<TRIPOS>ATOM
      1 C01         12.9060    26.7310   -17.1390 c3         1 UHL       0.147900
      2 C03         14.3080    25.4330   -15.6590 c3         1 UHL       0.167600
      3 C04         15.1040    24.1190   -15.6230 c3         1 UHL      -0.096700
      4 C05         16.2160    24.0790   -16.6300 cc         1 UHL       0.415300
      5 C08         17.2840    23.5080   -18.3180 cc         1 UHL       0.646900
      6 N06         17.3630    24.7450   -16.5840 nd         1 UHL      -0.330000
      7 N07         18.0630    24.3640   -17.7040 nd         1 UHL      -0.430000
      8 N09         17.5770    22.8630   -19.4550 nv         1 UHL      -1.030900
      9 O02         13.6880    25.5400   -16.9510 os         1 UHL      -0.444000
     10 O10         16.1140    23.2600   -17.7100 os         1 UHL      -0.318000
     11 H1          12.4660    26.7420   -18.1450 h1         1 UHL       0.030033
     12 H2          12.0890    26.7810   -16.4080 h1         1 UHL       0.030033
     13 H3          13.5280    27.6280   -17.0290 h1         1 UHL       0.030033
     14 H4          14.9830    26.2800   -15.4770 h1         1 UHL       0.032200
     15 H5          13.5490    25.4200   -14.8650 h1         1 UHL       0.032200
     16 H6          14.4200    23.2790   -15.7870 hc         1 UHL       0.073200
     17 H7          15.5230    23.9880   -14.6190 hc         1 UHL       0.073200
     18 H8          18.5570    22.8430   -19.7140 hn         1 UHL       0.486000
     19 H9          17.0410    22.0250   -19.6540 hn         1 UHL       0.486000
@<TRIPOS>BOND
     1     1     9 1   
     2     1    11 1   
     3     1    12 1   
     4     1    13 1   
     5     2     3 1   
     6     2     9 1   
     7     2    14 1   
     8     2    15 1   
     9     3     4 1   
    10     3    16 1   
    11     3    17 1   
    12     4     6 2   
    13     4    10 1   
    14     5     7 2   
    15     5     8 1   
    16     5    10 1   
    17     6     7 1   
    18     8    18 1   
    19     8    19 1   
@<TRIPOS>SUBSTRUCTURE
     1 UHL         1 TEMP              0 ****  ****    0 ROOT
