@<TRIPOS>MOLECULE
UHM
   30    31     1     0     0
SMALL
abcg2


@<TRIPOS>ATOM
      1 N1          12.9570    -2.3070    22.0200 nc         1 UHM      -0.502100
      2 C4          11.3350    -1.1080    23.4440 cc         1 UHM      -0.244000
      3 C5           6.9710    -0.0400    20.3780 ca         1 UHM      -0.173600
      4 C6           7.3540    -0.2660    19.0590 ca         1 UHM      -0.080000
      5 C7           6.9250     0.5710    18.0400 ca         1 UHM      -0.116000
      6 C8           6.1120     1.6550    18.3360 ca         1 UHM      -0.079000
      7 C10          6.1570     1.0580    20.6620 ca         1 UHM       0.132100
      8 N2           7.3880     4.2790    22.1680 n1         1 UHM      -0.442000
      9 C12          7.1050     3.2020    22.4510 c1         1 UHM       0.254900
     10 C11          6.7380     1.8250    22.8070 c3         1 UHM       0.233700
     11 O1           5.7510     1.3240    21.9420 os         1 UHM      -0.328100
     12 C9           5.7360     1.9050    19.6490 ca         1 UHM      -0.116000
     13 C            7.3670    -1.0080    21.4510 c          1 UHM       0.608700
     14 O            6.5470    -1.5250    22.1920 o          1 UHM      -0.577100
     15 N            8.6840    -1.2510    21.5210 ns         1 UHM      -0.512900
     16 C1           9.2520    -2.1960    22.4660 c3         1 UHM       0.180300
     17 C2          10.7260    -1.9820    22.5880 cd         1 UHM      -0.193300
     18 S           13.0170    -1.1660    23.2140 ss         1 UHM       0.337100
     19 C3          11.7120    -2.6350    21.8000 cd         1 UHM       0.295900
     20 H1          10.8750    -0.4630    24.1770 h4         1 UHM       0.162000
     21 H2           7.9760    -1.1210    18.8220 ha         1 UHM       0.118000
     22 H3           7.2210     0.3730    17.0190 ha         1 UHM       0.122000
     23 H4           5.7740     2.3150    17.5490 ha         1 UHM       0.123000
     24 H5           6.3290     1.8230    23.8170 h1         1 UHM       0.081200
     25 H6           7.6520     1.2240    22.8180 h1         1 UHM       0.081200
     26 H7           5.1120     2.7560    19.8910 ha         1 UHM       0.136000
     27 H8           9.3070    -0.7780    20.8850 hn         1 UHM       0.323500
     28 H9           8.7710    -2.0640    23.4350 h1         1 UHM       0.062200
     29 H10          9.0500    -3.2220    22.1460 h1         1 UHM       0.062200
     30 H11         11.4920    -3.3800    21.0440 h4         1 UHM       0.051100
@<TRIPOS>BOND
     1     1    18 1   
     2     1    19 2   
     3     2    17 2   
     4     2    18 1   
     5     2    20 1   
     6     3     4 ar  
     7     3     7 ar  
     8     3    13 1   
     9     4     5 ar  
    10     4    21 1   
    11     5     6 ar  
    12     5    22 1   
    13     6    12 ar  
    14     6    23 1   
    15     7    11 1   
    16     7    12 ar  
    17     8     9 3   
    18     9    10 1   
    19    10    11 1   
    20    10    24 1   
    21    10    25 1   
    22    12    26 1   
    23    13    14 2   
    24    13    15 1   
    25    15    16 1   
    26    15    27 1   
    27    16    17 1   
    28    16    28 1   
    29    16    29 1   
    30    17    19 1   
    31    19    30 1   
@<TRIPOS>SUBSTRUCTURE
     1 UHM         1 TEMP              0 ****  ****    0 ROOT
