@<TRIPOS>MOLECULE
UHM
   30    31     1     0     0
SMALL
No Charge or Current Charge


@<TRIPOS>ATOM
      1 N1          12.7850    -3.6430    21.7570 nc         1 UHM      -0.502100
      2 C4          11.9880    -1.3150    22.2370 cc         1 UHM      -0.244000
      3 C5           7.1910     0.2060    20.5680 ca         1 UHM      -0.173600
      4 C6           7.9260     0.2130    19.3530 ca         1 UHM      -0.080000
      5 C7           7.5070     0.9870    18.2580 ca         1 UHM      -0.116000
      6 C8           6.3450     1.7640    18.3460 ca         1 UHM      -0.079000
      7 C10          6.0260     1.0160    20.6450 ca         1 UHM       0.132100
      8 N2           5.8070     4.4550    22.3940 n1         1 UHM      -0.442000
      9 C12          5.7710     3.3110    22.6240 c1         1 UHM       0.254900
     10 C11          5.7580     1.8690    22.9250 c3         1 UHM       0.233700
     11 O1           5.2710     1.1100    21.7920 os         1 UHM      -0.328100
     12 C9           5.6070     1.7730    19.5380 ca         1 UHM      -0.116000
     13 C            7.6340    -0.6770    21.7210 c          1 UHM       0.608700
     14 O            6.8880    -1.0410    22.6190 o          1 UHM      -0.577100
     15 N            8.9420    -1.0990    21.6870 ns         1 UHM      -0.512900
     16 C1           9.5550    -1.9660    22.6850 c3         1 UHM       0.180300
     17 C2          10.9890    -2.2480    22.3330 cd         1 UHM      -0.193300
     18 S           13.4890    -2.1140    21.8030 ss         1 UHM       0.337100
     19 C3          11.5000    -3.5440    22.0520 cd         1 UHM       0.295900
     20 H1          11.9640    -0.2430    22.3860 h4         1 UHM       0.162000
     21 H2           8.8150    -0.4010    19.2290 ha         1 UHM       0.118000
     22 H3           8.0810     0.9740    17.3340 ha         1 UHM       0.122000
     23 H4           6.0180     2.3580    17.4950 ha         1 UHM       0.123000
     24 H5           5.1080     1.7080    23.7930 h1         1 UHM       0.081200
     25 H6           6.7720     1.5600    23.2060 h1         1 UHM       0.081200
     26 H7           4.7090     2.3820    19.6110 ha         1 UHM       0.136000
     27 H8           9.5230    -0.7530    20.9350 hn         1 UHM       0.323500
     28 H9           9.5080    -1.4760    23.6670 h1         1 UHM       0.062200
     29 H10          8.9910    -2.9070    22.7400 h1         1 UHM       0.062200
     30 H11         10.9230    -4.4610    22.0580 h4         1 UHM       0.051100
@<TRIPOS>BOND
     1     1    18 1   
     2     1    19 2   
     3     2    17 2   
     4     2    18 1   
     5     2    20 1   
     6     3     4 ar  
     7     3     7 ar  
     8     3    13 1   
     9     4     5 ar  
    10     4    21 1   
    11     5     6 ar  
    12     5    22 1   
    13     6    12 ar  
    14     6    23 1   
    15     7    11 1   
    16     7    12 ar  
    17     8     9 3   
    18     9    10 1   
    19    10    11 1   
    20    10    24 1   
    21    10    25 1   
    22    12    26 1   
    23    13    14 2   
    24    13    15 1   
    25    15    16 1   
    26    15    27 1   
    27    16    17 1   
    28    16    28 1   
    29    16    29 1   
    30    17    19 1   
    31    19    30 1   
@<TRIPOS>SUBSTRUCTURE
     1 UHM         1 TEMP              0 ****  ****    0 ROOT
