@<TRIPOS>MOLECULE
UHN
   44    46     1     0     0
SMALL
No Charge or Current Charge


@<TRIPOS>ATOM
      1 C10        -13.4380    16.5260     1.7810 c5         1 UHN       0.158300
      2 C13        -15.3320    15.9530     2.9610 c5         1 UHN       0.158300
      3 C15        -19.1810    21.3520    -0.4730 ca         1 UHN      -0.031500
      4 C17        -19.0950    20.9980    -2.8910 ca         1 UHN      -0.151600
      5 C20        -17.7850    21.5250    -2.9080 ca         1 UHN      -0.083000
      6 C21        -17.1770    21.9600    -1.7180 ca         1 UHN      -0.031500
      7 C04        -15.2190    20.5190     0.7260 c6         1 UHN       0.200800
      8 C05        -14.4100    19.3930     1.4050 c6         1 UHN      -0.076400
      9 C06        -15.3220    18.2090     1.8230 c6         1 UHN       0.191500
     10 C07        -16.4790    18.7660     2.6940 c6         1 UHN      -0.076400
     11 C08        -17.2270    19.9110     1.9770 c6         1 UHN       0.200800
     12 C11        -12.9480    15.4300     2.7630 c5         1 UHN      -0.079400
     13 C12        -14.2290    15.0420     3.5610 c5         1 UHN      -0.079400
     14 C14        -17.8700    21.8720    -0.4930 ca         1 UHN      -0.276500
     15 C16        -19.7870    20.9170    -1.6640 ca         1 UHN      -0.083000
     16 N03        -16.3080    21.0150     1.6040 n3         1 UHN      -0.730500
     17 N09        -14.5550    17.1420     2.5360 n3         1 UHN      -0.715600
     18 S02        -17.0880    22.4250     1.0380 sy         1 UHN       1.160600
     19 H1         -13.7920    16.0840     0.8390 h1         1 UHN       0.034700
     20 H2         -12.6340    17.2350     1.5450 h1         1 UHN       0.034700
     21 H3         -16.1030    16.1850     3.7070 h1         1 UHN       0.034700
     22 H4         -15.8200    15.4700     2.1020 h1         1 UHN       0.034700
     23 H5         -19.7350    21.2810     0.4620 ha         1 UHN       0.139000
     24 H6         -17.2340    21.5980    -3.8430 ha         1 UHN       0.129000
     25 H7         -16.1660    22.3640    -1.7540 ha         1 UHN       0.139000
     26 H8         -14.5210    21.3300     0.4740 h1         1 UHN       0.052950
     27 H9         -15.6290    20.1390    -0.2220 h1         1 UHN       0.052950
     28 H10        -13.6340    19.0570     0.7060 hc         1 UHN       0.060950
     29 H11        -13.8920    19.7940     2.2860 hc         1 UHN       0.060950
     30 H12        -15.7620    17.7820     0.9090 h1         1 UHN       0.012700
     31 H13        -16.0840    19.1300     3.6520 hc         1 UHN       0.060950
     32 H14        -17.2030    17.9760     2.9290 hc         1 UHN       0.060950
     33 H15        -18.0180    20.2710     2.6520 h1         1 UHN       0.052950
     34 H16        -17.7260    19.5050     1.0840 h1         1 UHN       0.052950
     35 H17        -12.5090    14.5780     2.2320 hc         1 UHN       0.047950
     36 H18        -12.1760    15.8240     3.4350 hc         1 UHN       0.047950
     37 H19        -14.4820    13.9810     3.4600 hc         1 UHN       0.047950
     38 H20        -14.0960    15.2430     4.6300 hc         1 UHN       0.047950
     39 H21        -20.7990    20.5160    -1.6310 ha         1 UHN       0.129000
     40 H22        -20.7920    20.1290    -4.0460 h4         1 UHN      -0.003800
     41 O1         -19.2200    20.5670    -5.2610 o          1 UHN      -0.501100
     42 C18        -19.7590    20.5270    -4.1590 c          1 UHN       0.577500
     43 O01        -16.0200    23.3850     0.7300 o          1 UHN      -0.531500
     44 O22        -18.1170    22.7490     2.0320 o          1 UHN      -0.531500
@<TRIPOS>BOND
     1     1    12 1   
     2     1    17 1   
     3     1    19 1   
     4     1    20 1   
     5     2    13 1   
     6     2    17 1   
     7     2    21 1   
     8     2    22 1   
     9     3    14 ar  
    10     3    15 ar  
    11     3    23 1   
    12     4     5 ar  
    13     4    15 ar  
    14     4    42 1   
    15     5     6 ar  
    16     5    24 1   
    17     6    14 ar  
    18     6    25 1   
    19     7     8 1   
    20     7    16 1   
    21     7    26 1   
    22     7    27 1   
    23     8     9 1   
    24     8    28 1   
    25     8    29 1   
    26     9    10 1   
    27     9    17 1   
    28     9    30 1   
    29    10    11 1   
    30    10    31 1   
    31    10    32 1   
    32    11    16 1   
    33    11    33 1   
    34    11    34 1   
    35    12    13 1   
    36    12    35 1   
    37    12    36 1   
    38    13    37 1   
    39    13    38 1   
    40    14    18 1   
    41    15    39 1   
    42    16    18 1   
    43    18    43 2   
    44    18    44 2   
    45    40    42 1   
    46    41    42 2   
@<TRIPOS>SUBSTRUCTURE
     1 UHN         1 TEMP              0 ****  ****    0 ROOT
