@<TRIPOS>MOLECULE
UHN
   44    46     1     0     0
SMALL
abcg2


@<TRIPOS>ATOM
      1 C10        -13.2970    16.5900     2.0560 c5         1 UHN       0.158300
      2 C13        -15.1610    16.0260     3.2780 c5         1 UHN       0.158300
      3 C15        -19.2410    21.4020    -0.5910 ca         1 UHN      -0.031500
      4 C17        -19.2490    21.4350    -3.0000 ca         1 UHN      -0.151600
      5 C20        -17.9290    21.8820    -3.0070 ca         1 UHN      -0.083000
      6 C21        -17.2630    22.0900    -1.8140 ca         1 UHN      -0.031500
      7 C04        -15.2950    20.1280     0.4820 c6         1 UHN       0.200800
      8 C05        -14.4440    19.1720     1.3000 c6         1 UHN      -0.076400
      9 C06        -15.2680    18.0160     1.8670 c6         1 UHN       0.191500
     10 C07        -16.4660    18.5850     2.6270 c6         1 UHN      -0.076400
     11 C08        -17.2730    19.5530     1.7770 c6         1 UHN       0.200800
     12 C11        -12.8100    15.5080     3.0210 c5         1 UHN      -0.079400
     13 C12        -14.0500    15.1580     3.8650 c5         1 UHN      -0.079400
     14 C14        -17.9260    21.8480    -0.6150 ca         1 UHN      -0.276500
     15 C16        -19.8990    21.1960    -1.7930 ca         1 UHN      -0.083000
     16 N03        -16.3950    20.6230     1.3070 n3         1 UHN      -0.730500
     17 N09        -14.4560    17.1720     2.7210 n3         1 UHN      -0.715600
     18 S02        -17.0570    22.0760     0.9200 sy         1 UHN       1.160600
     19 H1         -13.5760    16.1420     1.0870 h1         1 UHN       0.034700
     20 H2         -12.5300    17.3390     1.8570 h1         1 UHN       0.034700
     21 H3         -15.8880    16.3270     4.0330 h1         1 UHN       0.034700
     22 H4         -15.7100    15.4730     2.4970 h1         1 UHN       0.034700
     23 H5         -19.7570    21.2280     0.3430 ha         1 UHN       0.139000
     24 H6         -17.4240    22.0740    -3.9440 ha         1 UHN       0.129000
     25 H7         -16.2430    22.4490    -1.8220 ha         1 UHN       0.139000
     26 H8         -14.6810    20.9600     0.1450 h1         1 UHN       0.052950
     27 H9         -15.6860    19.6170    -0.4080 h1         1 UHN       0.052950
     28 H10        -13.6510    18.8030     0.6490 hc         1 UHN       0.060950
     29 H11        -13.9690    19.7160     2.1210 hc         1 UHN       0.060950
     30 H12        -15.6600    17.4310     1.0110 h1         1 UHN       0.012700
     31 H13        -16.1150    19.0970     3.5270 hc         1 UHN       0.060950
     32 H14        -17.1410    17.7890     2.9460 hc         1 UHN       0.060950
     33 H15        -18.0810    19.9720     2.3730 h1         1 UHN       0.052950
     34 H16        -17.7210    19.0260     0.9260 h1         1 UHN       0.052950
     35 H17        -12.4150    14.6490     2.4790 hc         1 UHN       0.047950
     36 H18        -12.0050    15.8860     3.6510 hc         1 UHN       0.047950
     37 H19        -14.3070    14.1000     3.8220 hc         1 UHN       0.047950
     38 H20        -13.8860    15.4070     4.9130 hc         1 UHN       0.047950
     39 H21        -20.9270    20.8540    -1.7900 ha         1 UHN       0.129000
     40 H22        -21.0290    20.8790    -4.1330 h4         1 UHN      -0.003800
     41 O1         -19.5110    21.3790    -5.3590 o          1 UHN      -0.501100
     42 C18        -19.9850    21.2140    -4.2620 c          1 UHN       0.577500
     43 O01        -15.9570    22.9910     0.6700 o          1 UHN      -0.531500
     44 O22        -18.0410    22.3920     1.9400 o          1 UHN      -0.531500
@<TRIPOS>BOND
     1     1    12 1   
     2     1    17 1   
     3     1    19 1   
     4     1    20 1   
     5     2    13 1   
     6     2    17 1   
     7     2    21 1   
     8     2    22 1   
     9     3    14 ar  
    10     3    15 ar  
    11     3    23 1   
    12     4     5 ar  
    13     4    15 ar  
    14     4    42 1   
    15     5     6 ar  
    16     5    24 1   
    17     6    14 ar  
    18     6    25 1   
    19     7     8 1   
    20     7    16 1   
    21     7    26 1   
    22     7    27 1   
    23     8     9 1   
    24     8    28 1   
    25     8    29 1   
    26     9    10 1   
    27     9    17 1   
    28     9    30 1   
    29    10    11 1   
    30    10    31 1   
    31    10    32 1   
    32    11    16 1   
    33    11    33 1   
    34    11    34 1   
    35    12    13 1   
    36    12    35 1   
    37    12    36 1   
    38    13    37 1   
    39    13    38 1   
    40    14    18 1   
    41    15    39 1   
    42    16    18 1   
    43    18    43 2   
    44    18    44 2   
    45    40    42 1   
    46    41    42 2   
@<TRIPOS>SUBSTRUCTURE
     1 UHN         1 TEMP              0 ****  ****    0 ROOT
