@<TRIPOS>MOLECULE
UHQ
   40    41     1     0     0
SMALL
No Charge or Current Charge


@<TRIPOS>ATOM
      1 C10        -24.0970   -21.8930    -1.8930 ca         1 UHQ      -0.032000
      2 C13        -21.5330   -20.7440    -1.8080 ca         1 UHQ      -0.082500
      3 C15        -21.5780   -20.2860    -4.2910 c          1 UHQ       0.577500
      4 C03        -26.0870   -18.3360     1.7350 c6         1 UHQ       0.190500
      5 C04        -24.9210   -18.8560     2.6170 c6         1 UHQ      -0.090900
      6 C05        -24.1250   -19.9510     1.8710 c6         1 UHQ       0.201300
      7 C09        -23.4080   -21.8100    -0.6660 ca         1 UHQ      -0.275500
      8 C11        -23.5080   -21.4000    -3.0700 ca         1 UHQ      -0.082500
      9 C12        -22.2210   -20.8200    -3.0370 ca         1 UHQ      -0.151600
     10 C14        -22.1190   -21.2370    -0.6300 ca         1 UHQ      -0.032000
     11 C18        -26.1120   -20.6010     0.5860 c6         1 UHQ       0.201300
     12 C19        -26.9670   -19.5340     1.3040 c6         1 UHQ      -0.090900
     13 N02        -26.8820   -17.2310     2.3630 n3         1 UHQ      -0.724600
     14 N06        -25.0020   -21.0760     1.4530 n3         1 UHQ      -0.733500
     15 O08        -25.1940   -23.4310     0.5150 o          1 UHQ      -0.531500
     16 O17        -23.1240   -22.7470     1.8340 o          1 UHQ      -0.531500
     17 S07        -24.1660   -22.4380     0.8480 sy         1 UHQ       1.159600
     18 H1         -25.0900   -22.3380    -1.9410 ha         1 UHQ       0.138500
     19 H2         -20.5390   -20.3020    -1.7630 ha         1 UHQ       0.129000
     20 H3         -20.5620   -19.8490    -4.1660 h4         1 UHQ      -0.003800
     21 H6         -26.8070   -15.1410     2.7740 h1         1 UHQ       0.031033
     22 H7         -25.3410   -16.0300     3.2360 h1         1 UHQ       0.031033
     23 H8         -25.6740   -15.6850     1.5210 h1         1 UHQ       0.031033
     24 H9         -28.2090   -16.7340     3.9570 h1         1 UHQ       0.031033
     25 H10        -28.2650   -18.4340     3.4820 h1         1 UHQ       0.031033
     26 H11        -26.8850   -17.8180     4.4250 h1         1 UHQ       0.031033
     27 H12        -25.6360   -17.9390     0.8120 h1         1 UHQ       0.049700
     28 H13        -24.2400   -18.0380     2.8830 hc         1 UHQ       0.058700
     29 H14        -25.3040   -19.2710     3.5580 hc         1 UHQ       0.058700
     30 H15        -23.3290   -20.3040     2.5430 h1         1 UHQ       0.053950
     31 H16        -23.6320   -19.5000     0.9970 h1         1 UHQ       0.053950
     32 H17        -24.0550   -21.4700    -4.0070 ha         1 UHQ       0.129000
     33 H18        -21.5690   -21.1680     0.3080 ha         1 UHQ       0.138500
     34 H19        -26.7760   -21.4330     0.3080 h1         1 UHQ       0.053950
     35 H20        -25.7190   -20.1750    -0.3500 h1         1 UHQ       0.053950
     36 H21        -27.7680   -19.1920     0.6360 hc         1 UHQ       0.058700
     37 H22        -27.4490   -20.0000     2.1720 hc         1 UHQ       0.058700
     38 O1         -22.1140   -20.3180    -5.3940 o          1 UHQ      -0.501100
     39 C20        -26.1340   -15.9570     2.4810 c3         1 UHQ       0.157100
     40 C01        -27.5930   -17.5790     3.6210 c3         1 UHQ       0.157100
@<TRIPOS>BOND
     1     1     7 ar  
     2     1     8 ar  
     3     1    18 1   
     4     2     9 ar  
     5     2    10 ar  
     6     2    19 1   
     7     3     9 1   
     8     3    20 1   
     9     3    38 2   
    10     4     5 1   
    11     4    12 1   
    12     4    13 1   
    13     4    27 1   
    14     5     6 1   
    15     5    28 1   
    16     5    29 1   
    17     6    14 1   
    18     6    30 1   
    19     6    31 1   
    20     7    10 ar  
    21     7    17 1   
    22     8     9 ar  
    23     8    32 1   
    24    10    33 1   
    25    11    12 1   
    26    11    14 1   
    27    11    34 1   
    28    11    35 1   
    29    12    36 1   
    30    12    37 1   
    31    13    39 1   
    32    13    40 1   
    33    14    17 1   
    34    15    17 2   
    35    16    17 2   
    36    21    39 1   
    37    22    39 1   
    38    23    39 1   
    39    24    40 1   
    40    25    40 1   
    41    26    40 1   
@<TRIPOS>SUBSTRUCTURE
     1 UHQ         1 TEMP              0 ****  ****    0 ROOT
