@<TRIPOS>MOLECULE
UHQ
   40    41     1     0     0
SMALL
bcc


@<TRIPOS>ATOM
      1 C10        -24.0450   -21.9390    -1.9700 ca         1 UHQ      -0.050000
      2 C13        -21.4230   -21.0080    -1.9080 ca         1 UHQ      -0.100500
      3 C15        -21.3660   -20.8270    -4.3690 c          1 UHQ       0.577500
      4 C03        -26.1830   -18.2000     1.8510 c6         1 UHQ       0.190500
      5 C04        -24.9520   -18.7330     2.5950 c6         1 UHQ      -0.090900
      6 C05        -24.1170   -19.6320     1.6960 c6         1 UHQ       0.201300
      7 C09        -23.3720   -21.7790    -0.7630 ca         1 UHQ      -0.275500
      8 C11        -23.3970   -21.6250    -3.1500 ca         1 UHQ      -0.100500
      9 C12        -22.0840   -21.1600    -3.1220 ca         1 UHQ      -0.151600
     10 C14        -22.0640   -21.3160    -0.7180 ca         1 UHQ      -0.050000
     11 C18        -26.0970   -20.2630     0.4160 c6         1 UHQ       0.201300
     12 C19        -26.9760   -19.3740     1.2820 c6         1 UHQ      -0.090900
     13 N02        -27.0310   -17.2890     2.6070 n3         1 UHQ      -0.724600
     14 N06        -24.9570   -20.7280     1.2080 n3         1 UHQ      -0.733500
     15 O08        -25.2670   -23.0940     0.4710 o          1 UHQ      -0.602300
     16 O17        -23.2210   -22.4350     1.7660 o          1 UHQ      -0.602300
     17 S07        -24.2220   -22.1270     0.7610 sy         1 UHQ       1.301200
     18 H1         -25.0600   -22.3130    -1.9950 ha         1 UHQ       0.156500
     19 H2         -20.4000   -20.6520    -1.8880 ha         1 UHQ       0.147000
     20 H3         -20.3250   -20.4910    -4.2240 h4         1 UHQ      -0.003800
     21 H6         -27.1650   -15.2990     3.2110 h1         1 UHQ       0.031033
     22 H7         -25.5540   -15.9790     3.4500 h1         1 UHQ       0.031033
     23 H8         -26.1190   -15.5800     1.8220 h1         1 UHQ       0.031033
     24 H9         -28.2870   -17.1280     4.2580 h1         1 UHQ       0.031033
     25 H10        -28.0110   -18.7760     3.7220 h1         1 UHQ       0.031033
     26 H11        -26.7620   -17.9270     4.6390 h1         1 UHQ       0.031033
     27 H12        -25.8170   -17.6260     0.9910 h1         1 UHQ       0.049700
     28 H13        -24.3190   -17.9130     2.9410 hc         1 UHQ       0.058700
     29 H14        -25.2560   -19.3040     3.4770 hc         1 UHQ       0.058700
     30 H15        -23.2740   -20.0330     2.2530 h1         1 UHQ       0.053950
     31 H16        -23.7210   -19.0550     0.8510 h1         1 UHQ       0.053950
     32 H17        -23.9110   -21.7510    -4.0930 ha         1 UHQ       0.147000
     33 H18        -21.5410   -21.2040     0.2220 ha         1 UHQ       0.156500
     34 H19        -26.6750   -21.1150     0.0640 h1         1 UHQ       0.053950
     35 H20        -25.7460   -19.7070    -0.4630 h1         1 UHQ       0.053950
     36 H21        -27.8040   -19.0010     0.6750 hc         1 UHQ       0.058700
     37 H22        -27.4030   -19.9850     2.0800 hc         1 UHQ       0.058700
     38 O1         -21.8510   -20.9070    -5.4710 o          1 UHQ      -0.501100
     39 C20        -26.4310   -15.9850     2.7860 c3         1 UHQ       0.157100
     40 C01        -27.5310   -17.8080     3.8620 c3         1 UHQ       0.157100
@<TRIPOS>BOND
     1     1     7 ar  
     2     1     8 ar  
     3     1    18 1   
     4     2     9 ar  
     5     2    10 ar  
     6     2    19 1   
     7     3     9 1   
     8     3    20 1   
     9     3    38 2   
    10     4     5 1   
    11     4    12 1   
    12     4    13 1   
    13     4    27 1   
    14     5     6 1   
    15     5    28 1   
    16     5    29 1   
    17     6    14 1   
    18     6    30 1   
    19     6    31 1   
    20     7    10 ar  
    21     7    17 1   
    22     8     9 ar  
    23     8    32 1   
    24    10    33 1   
    25    11    12 1   
    26    11    14 1   
    27    11    34 1   
    28    11    35 1   
    29    12    36 1   
    30    12    37 1   
    31    13    39 1   
    32    13    40 1   
    33    14    17 1   
    34    15    17 2   
    35    16    17 2   
    36    21    39 1   
    37    22    39 1   
    38    23    39 1   
    39    24    40 1   
    40    25    40 1   
    41    26    40 1   
@<TRIPOS>SUBSTRUCTURE
     1 UHQ         1 TEMP              0 ****  ****    0 ROOT
