@<TRIPOS>MOLECULE
UHR
   21    21     1     0     0
SMALL
abcg2


@<TRIPOS>ATOM
      1 C02         -5.2170    14.2470    17.7170 c3         1 UHR       0.125800
      2 C03         -4.9220    13.1060    18.6860 c6         1 UHR       0.166300
      3 C04         -6.1640    12.2810    19.0340 c6         1 UHR      -0.106400
      4 C05         -5.7480    10.9020    19.5290 c6         1 UHR      -0.070400
      5 C06         -4.9950    10.1520    18.4210 c6         1 UHR      -0.108400
      6 C07         -4.3290    11.1510    17.4730 c6         1 UHR       0.158600
      7 N01         -6.1920    15.1650    18.2870 n8         1 UHR      -0.998200
      8 O08         -3.8750    12.2910    18.1720 os         1 UHR      -0.455000
      9 H1          -4.2900    14.7980    17.5410 h1         1 UHR       0.035200
     10 H2          -5.5210    13.8250    16.7470 h1         1 UHR       0.035200
     11 H3          -4.5310    13.5410    19.6130 h1         1 UHR       0.077700
     12 H4          -6.7460    12.8080    19.7930 hc         1 UHR       0.046700
     13 H5          -6.8190    12.1750    18.1610 hc         1 UHR       0.046700
     14 H6          -6.6200    10.3320    19.8550 hc         1 UHR       0.045200
     15 H7          -5.1100    11.0140    20.4090 hc         1 UHR       0.045200
     16 H8          -5.6810     9.5250    17.8460 hc         1 UHR       0.044200
     17 H9          -4.2520     9.4820    18.8580 hc         1 UHR       0.044200
     18 H10         -5.0240    11.4330    16.6710 h1         1 UHR       0.040700
     19 H11         -3.4570    10.7100    16.9880 h1         1 UHR       0.040700
     20 H12         -6.2400    15.9980    17.7160 hn         1 UHR       0.393000
     21 H13         -7.1170    14.7560    18.2450 hn         1 UHR       0.393000
@<TRIPOS>BOND
     1     1     2 1   
     2     1     7 1   
     3     1     9 1   
     4     1    10 1   
     5     2     3 1   
     6     2     8 1   
     7     2    11 1   
     8     3     4 1   
     9     3    12 1   
    10     3    13 1   
    11     4     5 1   
    12     4    14 1   
    13     4    15 1   
    14     5     6 1   
    15     5    16 1   
    16     5    17 1   
    17     6     8 1   
    18     6    18 1   
    19     6    19 1   
    20     7    20 1   
    21     7    21 1   
@<TRIPOS>SUBSTRUCTURE
     1 UHR         1 TEMP              0 ****  ****    0 ROOT
