@<TRIPOS>MOLECULE
UHR
   21    21     1     0     0
SMALL
No Charge or Current Charge


@<TRIPOS>ATOM
      1 C02         -5.2650    14.1260    17.6710 c3         1 UHR       0.125800
      2 C03         -4.9140    13.1620    18.8590 c6         1 UHR       0.166300
      3 C04         -6.1240    12.3060    19.3550 c6         1 UHR      -0.106400
      4 C05         -5.7490    10.8110    19.5080 c6         1 UHR      -0.070400
      5 C06         -5.1380    10.2650    18.1890 c6         1 UHR      -0.108400
      6 C07         -4.1090    11.2480    17.5610 c6         1 UHR       0.158600
      7 N01         -6.2170    15.2160    18.0090 n8         1 UHR      -0.998200
      8 O08         -3.7930    12.3140    18.4850 os         1 UHR      -0.455000
      9 H1          -4.3340    14.5880    17.3130 h1         1 UHR       0.035200
     10 H2          -5.6940    13.5420    16.8450 h1         1 UHR       0.035200
     11 H3          -4.5710    13.7900    19.6950 h1         1 UHR       0.077700
     12 H4          -6.4920    12.7010    20.3120 hc         1 UHR       0.046700
     13 H5          -6.9620    12.3900    18.6490 hc         1 UHR       0.046700
     14 H6          -6.6310    10.2210    19.7910 hc         1 UHR       0.045200
     15 H7          -5.0230    10.6970    20.3260 hc         1 UHR       0.045200
     16 H8          -5.9380    10.0730    17.4610 hc         1 UHR       0.044200
     17 H9          -4.6580     9.2950    18.3780 hc         1 UHR       0.044200
     18 H10         -4.5080    11.6730    16.6290 h1         1 UHR       0.040700
     19 H11         -3.1840    10.7090    17.3100 h1         1 UHR       0.040700
     20 H12         -6.4210    15.7600    17.1610 hn         1 UHR       0.393000
     21 H13         -7.1260    14.8050    18.2540 hn         1 UHR       0.393000
@<TRIPOS>BOND
     1     1     2 1   
     2     1     7 1   
     3     1     9 1   
     4     1    10 1   
     5     2     3 1   
     6     2     8 1   
     7     2    11 1   
     8     3     4 1   
     9     3    12 1   
    10     3    13 1   
    11     4     5 1   
    12     4    14 1   
    13     4    15 1   
    14     5     6 1   
    15     5    16 1   
    16     5    17 1   
    17     6     8 1   
    18     6    18 1   
    19     6    19 1   
    20     7    20 1   
    21     7    21 1   
@<TRIPOS>SUBSTRUCTURE
     1 UHR         1 TEMP              0 ****  ****    0 ROOT
