@<TRIPOS>MOLECULE
UHS
   58    59     1     0     0
SMALL
abcg2


@<TRIPOS>ATOM
      1 N1           7.6320     2.0380    23.2490 ns         1 UHS      -0.499900
      2 N3           8.8640    -1.1510    23.6840 nc         1 UHS      -0.396300
      3 C4           7.8690     1.9030    21.9360 c          1 UHS       0.594100
      4 C5           8.3360     2.9420    24.1870 c3         1 UHS       0.136400
      5 C6           7.7040     2.7010    25.5590 c3         1 UHS      -0.105100
      6 C7           8.1330     4.4020    23.7710 c3         1 UHS      -0.105100
      7 C8           9.8260     2.5840    24.2330 c3         1 UHS      -0.105100
      8 C10          7.7200    -0.4150    19.1160 ca         1 UHS       0.346900
      9 C13          6.7990     1.7760    19.0200 ca         1 UHS      -0.043000
     10 C15         10.8500    -0.7850    22.6950 cc         1 UHS       0.212300
     11 C17         12.3500    -0.7730    22.6690 c3         1 UHS      -0.090300
     12 C20         12.8630    -2.2190    22.8130 c3         1 UHS      -0.086100
     13 O1           8.6200     2.6110    21.2770 o          1 UHS      -0.592100
     14 C3           7.0640     0.7410    21.2910 c3         1 UHS       0.080000
     15 N            7.3720    -0.5340    21.9610 n          1 UHS      -0.423300
     16 C14          8.6690    -0.7290    22.4580 cd         1 UHS       0.396900
     17 C16          9.8930    -0.4660    21.7860 cd         1 UHS      -0.248000
     18 C19         12.8750     0.0860    23.8340 c3         1 UHS      -0.086100
     19 C18         12.8250    -0.1840    21.3350 c3         1 UHS      -0.086100
     20 O2          10.2500    -1.2100    23.8310 os         1 UHS      -0.085700
     21 C2           6.3710    -1.4950    21.9970 c          1 UHS       0.614100
     22 O            5.2580    -1.2230    21.5730 o          1 UHS      -0.568100
     23 C1           6.7210    -2.8690    22.5270 c3         1 UHS      -0.147400
     24 C            5.7090    -3.9280    22.1120 c3         1 UHS      -0.079100
     25 C9           7.2130     0.6910    19.7890 ca         1 UHS      -0.130300
     26 C12          6.9240     1.7200    17.6420 ca         1 UHS      -0.160000
     27 C11          7.4570     0.5710    17.0680 ca         1 UHS       0.336900
     28 N2           7.8460    -0.4840    17.7860 nb         1 UHS      -0.668000
     29 H1           7.0050     1.3690    23.6680 hn         1 UHS       0.318500
     30 H2           8.1880     3.3320    26.3040 hc         1 UHS       0.046811
     31 H3           6.6390     2.9420    25.5420 hc         1 UHS       0.046811
     32 H4           7.8230     1.6580    25.8620 hc         1 UHS       0.046811
     33 H5           8.6080     5.0570    24.5030 hc         1 UHS       0.046811
     34 H6           8.5710     4.5940    22.7930 hc         1 UHS       0.046811
     35 H7           7.0690     4.6420    23.7320 hc         1 UHS       0.046811
     36 H8          10.3390     3.2360    24.9410 hc         1 UHS       0.046811
     37 H9           9.9570     1.5510    24.5570 hc         1 UHS       0.046811
     38 H10         10.2890     2.7040    23.2550 hc         1 UHS       0.046811
     39 H11          8.0370    -1.2940    19.6640 h4         1 UHS       0.017100
     40 H12          6.3810     2.6540    19.4970 ha         1 UHS       0.123000
     41 H13         12.5370    -2.6590    23.7560 hc         1 UHS       0.045589
     42 H14         12.5000    -2.8430    21.9940 hc         1 UHS       0.045589
     43 H15         13.9540    -2.2200    22.7900 hc         1 UHS       0.045589
     44 H16          6.0130     0.9380    21.5090 h1         1 UHS       0.099700
     45 H17         10.0300    -0.0980    20.7860 ha         1 UHS       0.172000
     46 H18         12.5550    -0.3160    24.7960 hc         1 UHS       0.045589
     47 H19         13.9660     0.0960    23.8100 hc         1 UHS       0.045589
     48 H20         12.5170     1.1140    23.7510 hc         1 UHS       0.045589
     49 H21         13.9160    -0.1770    21.3140 hc         1 UHS       0.045589
     50 H22         12.4720    -0.7780    20.4910 hc         1 UHS       0.045589
     51 H23         12.4740     0.8410    21.2090 hc         1 UHS       0.045589
     52 H24          6.7820    -2.8020    23.6150 hc         1 UHS       0.072700
     53 H25          7.7240    -3.1360    22.1910 hc         1 UHS       0.072700
     54 H26          6.0080    -4.8970    22.5140 hc         1 UHS       0.045367
     55 H27          4.7130    -3.6950    22.4880 hc         1 UHS       0.045367
     56 H28          5.6490    -4.0130    21.0260 hc         1 UHS       0.045367
     57 H29          6.6120     2.5470    17.0180 ha         1 UHS       0.125000
     58 H30          7.5710     0.4950    15.9920 h4         1 UHS       0.019100
@<TRIPOS>BOND
     1     1     3 1   
     2     1     4 1   
     3     1    29 1   
     4     2    16 2   
     5     2    20 1   
     6     3    13 2   
     7     3    14 1   
     8     4     5 1   
     9     4     6 1   
    10     4     7 1   
    11     5    30 1   
    12     5    31 1   
    13     5    32 1   
    14     6    33 1   
    15     6    34 1   
    16     6    35 1   
    17     7    36 1   
    18     7    37 1   
    19     7    38 1   
    20     8    25 ar  
    21     8    28 ar  
    22     8    39 1   
    23     9    25 ar  
    24     9    26 ar  
    25     9    40 1   
    26    10    11 1   
    27    10    17 2   
    28    10    20 1   
    29    11    12 1   
    30    11    18 1   
    31    11    19 1   
    32    12    41 1   
    33    12    42 1   
    34    12    43 1   
    35    14    15 1   
    36    14    25 1   
    37    14    44 1   
    38    15    16 1   
    39    15    21 1   
    40    16    17 1   
    41    17    45 1   
    42    18    46 1   
    43    18    47 1   
    44    18    48 1   
    45    19    49 1   
    46    19    50 1   
    47    19    51 1   
    48    21    22 2   
    49    21    23 1   
    50    23    24 1   
    51    23    52 1   
    52    23    53 1   
    53    24    54 1   
    54    24    55 1   
    55    24    56 1   
    56    26    27 ar  
    57    26    57 1   
    58    27    28 ar  
    59    27    58 1   
@<TRIPOS>SUBSTRUCTURE
     1 UHS         1 TEMP              0 ****  ****    0 ROOT
