@<TRIPOS>MOLECULE
UHS
   58    59     1     0     0
SMALL
No Charge or Current Charge


@<TRIPOS>ATOM
      1 N1           7.9040     2.0000    23.2130 ns         1 UHS      -0.499900
      2 N3           8.7400    -1.5880    23.6780 nc         1 UHS      -0.396300
      3 C4           7.8910     1.9570    21.8280 c          1 UHS       0.594100
      4 C5           8.5640     2.9890    24.0730 c3         1 UHS       0.136400
      5 C6           8.3090     2.5540    25.5340 c3         1 UHS      -0.105100
      6 C7           7.9590     4.3960    23.8450 c3         1 UHS      -0.105100
      7 C8          10.0900     3.0030    23.8120 c3         1 UHS      -0.105100
      8 C10          8.0480    -0.4520    19.1100 ca         1 UHS       0.346900
      9 C13          6.6790     1.5240    18.8550 ca         1 UHS      -0.043000
     10 C15         10.7570    -0.8560    22.8810 cc         1 UHS       0.212300
     11 C17         12.2690    -0.7020    22.8490 c3         1 UHS      -0.090300
     12 C20         12.9050    -2.0580    22.4490 c3         1 UHS      -0.086100
     13 O1           8.4420     2.8010    21.1340 o          1 UHS      -0.592100
     14 C3           7.1470     0.7210    21.2300 c3         1 UHS       0.080000
     15 N            7.3330    -0.5820    21.9750 n          1 UHS      -0.423300
     16 C14          8.5620    -0.8900    22.5730 cd         1 UHS       0.396900
     17 C16          9.7760    -0.3990    22.0570 cd         1 UHS      -0.248000
     18 C19         12.7960    -0.2830    24.2480 c3         1 UHS      -0.086100
     19 C18         12.6870     0.3770    21.8140 c3         1 UHS      -0.086100
     20 O2          10.1670    -1.5880    23.8840 os         1 UHS      -0.085700
     21 C2           6.2270    -1.4830    21.9930 c          1 UHS       0.614100
     22 O            5.1340    -1.1190    21.5780 o          1 UHS      -0.568100
     23 C1           6.3880    -2.9350    22.5000 c3         1 UHS      -0.147400
     24 C            5.2690    -3.9180    22.0820 c3         1 UHS      -0.079100
     25 C9           7.3070     0.5930    19.7060 ca         1 UHS      -0.130300
     26 C12          6.8310     1.3790    17.4670 ca         1 UHS      -0.160000
     27 C11          7.5950     0.3120    16.9700 ca         1 UHS       0.336900
     28 N2           8.1960    -0.5950    17.7720 nb         1 UHS      -0.668000
     29 H1           7.4210     1.2390    23.6740 hn         1 UHS       0.318500
     30 H2           8.7780     3.2520    26.2390 hc         1 UHS       0.046811
     31 H3           7.2340     2.5260    25.7530 hc         1 UHS       0.046811
     32 H4           8.7210     1.5550    25.7230 hc         1 UHS       0.046811
     33 H5           8.3830     5.1190    24.5520 hc         1 UHS       0.046811
     34 H6           8.1630     4.7650    22.8340 hc         1 UHS       0.046811
     35 H7           6.8720     4.3800    23.9880 hc         1 UHS       0.046811
     36 H8          10.6010     3.6580    24.5290 hc         1 UHS       0.046811
     37 H9          10.5070     1.9960    23.9180 hc         1 UHS       0.046811
     38 H10         10.3290     3.3660    22.8070 hc         1 UHS       0.046811
     39 H11          8.5400    -1.2120    19.7150 h4         1 UHS       0.017100
     40 H12          6.0890     2.3450    19.2590 ha         1 UHS       0.123000
     41 H13         12.6480    -2.8410    23.1730 hc         1 UHS       0.045589
     42 H14         12.5480    -2.3800    21.4630 hc         1 UHS       0.045589
     43 H15         13.9990    -1.9830    22.4060 hc         1 UHS       0.045589
     44 H16          6.1050     1.0240    21.3900 h1         1 UHS       0.099700
     45 H17          9.9220     0.2040    21.1720 ha         1 UHS       0.172000
     46 H18         12.5570    -1.0400    25.0050 hc         1 UHS       0.045589
     47 H19         13.8860    -0.1580    24.2350 hc         1 UHS       0.045589
     48 H20         12.3530     0.6670    24.5690 hc         1 UHS       0.045589
     49 H21         13.7760     0.5070    21.8000 hc         1 UHS       0.045589
     50 H22         12.3720     0.0960    20.8010 hc         1 UHS       0.045589
     51 H23         12.2350     1.3470    22.0530 hc         1 UHS       0.045589
     52 H24          6.4670    -2.8970    23.5920 hc         1 UHS       0.072700
     53 H25          7.3710    -3.3110    22.1970 hc         1 UHS       0.072700
     54 H26          5.4760    -4.9210    22.4730 hc         1 UHS       0.045367
     55 H27          4.2970    -3.5940    22.4730 hc         1 UHS       0.045367
     56 H28          5.1990    -3.9840    20.9890 hc         1 UHS       0.045367
     57 H29          6.3650     2.0800    16.7810 ha         1 UHS       0.125000
     58 H30          7.7290     0.1770    15.8970 h4         1 UHS       0.019100
@<TRIPOS>BOND
     1     1     3 1   
     2     1     4 1   
     3     1    29 1   
     4     2    16 2   
     5     2    20 1   
     6     3    13 2   
     7     3    14 1   
     8     4     5 1   
     9     4     6 1   
    10     4     7 1   
    11     5    30 1   
    12     5    31 1   
    13     5    32 1   
    14     6    33 1   
    15     6    34 1   
    16     6    35 1   
    17     7    36 1   
    18     7    37 1   
    19     7    38 1   
    20     8    25 ar  
    21     8    28 ar  
    22     8    39 1   
    23     9    25 ar  
    24     9    26 ar  
    25     9    40 1   
    26    10    11 1   
    27    10    17 2   
    28    10    20 1   
    29    11    12 1   
    30    11    18 1   
    31    11    19 1   
    32    12    41 1   
    33    12    42 1   
    34    12    43 1   
    35    14    15 1   
    36    14    25 1   
    37    14    44 1   
    38    15    16 1   
    39    15    21 1   
    40    16    17 1   
    41    17    45 1   
    42    18    46 1   
    43    18    47 1   
    44    18    48 1   
    45    19    49 1   
    46    19    50 1   
    47    19    51 1   
    48    21    22 2   
    49    21    23 1   
    50    23    24 1   
    51    23    52 1   
    52    23    53 1   
    53    24    54 1   
    54    24    55 1   
    55    24    56 1   
    56    26    27 ar  
    57    26    57 1   
    58    27    28 ar  
    59    27    58 1   
@<TRIPOS>SUBSTRUCTURE
     1 UHS         1 TEMP              0 ****  ****    0 ROOT
