@<TRIPOS>MOLECULE
UHT
   38    39     1     0     0
SMALL
No Charge or Current Charge


@<TRIPOS>ATOM
      1 C10         16.5120    20.6470    -2.9550 c3         1 UHT       0.186100
      2 C13         16.4090    17.7720     0.5850 c6         1 UHT      -0.074400
      3 C15         14.1400    18.9500     0.5310 c6         1 UHT      -0.074400
      4 C03         18.2310    22.3330     3.3540 ca         1 UHT      -0.152600
      5 C04         17.4440    23.1780     2.5420 ca         1 UHT      -0.083500
      6 C05         17.4420    23.0240     1.1450 ca         1 UHT      -0.031500
      7 C06         18.2270    22.0210     0.5420 ca         1 UHT      -0.270500
      8 C11         16.1890    20.0760    -0.5140 c6         1 UHT       0.223500
      9 C12         16.9160    18.6980    -0.5490 c6         1 UHT      -0.085400
     10 C14         14.8730    17.5860     0.5190 c6         1 UHT      -0.077400
     11 C16         14.6510    19.8640    -0.6120 c6         1 UHT      -0.085400
     12 C18         19.0150    21.1740     1.3490 ca         1 UHT      -0.031500
     13 C19         19.0150    21.3300     2.7460 ca         1 UHT      -0.083500
     14 N09         16.6890    21.0450    -1.5380 n3         1 UHT      -0.747500
     15 O08         19.2450    20.8690    -1.6530 o          1 UHT      -0.534000
     16 O17         18.0730    23.1480    -1.8430 o          1 UHT      -0.534000
     17 S07         18.1930    21.8100    -1.2520 sy         1 UHT       1.166600
     18 H1          15.4780    20.3540    -3.1720 h1         1 UHT       0.051367
     19 H2          16.7530    21.4820    -3.6270 h1         1 UHT       0.051367
     20 H3          17.1690    19.8070    -3.2170 h1         1 UHT       0.051367
     21 H4          16.6890    18.1950     1.5600 hc         1 UHT       0.044450
     22 H5          16.9060    16.7940     0.5180 hc         1 UHT       0.044450
     23 H6          14.2930    19.4460     1.5000 hc         1 UHT       0.044450
     24 H7          13.0580    18.7930     0.4280 hc         1 UHT       0.044450
     25 H8          18.8910    21.7740     5.4080 h4         1 UHT      -0.004800
     26 H11         16.8300    23.9570     2.9910 ha         1 UHT       0.129000
     27 H12         16.8220    23.6800     0.5350 ha         1 UHT       0.138500
     28 H13         16.3420    20.4920     0.4910 h1         1 UHT       0.074700
     29 H14         16.7540    18.2070    -1.5180 hc         1 UHT       0.048200
     30 H15         17.9990    18.8310    -0.4420 hc         1 UHT       0.048200
     31 H16         14.5350    16.9730     1.3660 hc         1 UHT       0.042200
     32 H17         14.6070    17.0310    -0.3920 hc         1 UHT       0.042200
     33 H18         14.3780    19.4090    -1.5720 hc         1 UHT       0.048200
     34 H19         14.1390    20.8350    -0.5640 hc         1 UHT       0.048200
     35 H20         19.6250    20.3900     0.9020 ha         1 UHT       0.138500
     36 H21         19.6270    20.6680     3.3550 ha         1 UHT       0.129000
     37 O1          17.5860    23.3330     5.4520 o          1 UHT      -0.502100
     38 C02         18.2420    22.4860     4.8530 c          1 UHT       0.578500
@<TRIPOS>BOND
     1     1    14 1   
     2     1    18 1   
     3     1    19 1   
     4     1    20 1   
     5     2     9 1   
     6     2    10 1   
     7     2    21 1   
     8     2    22 1   
     9     3    10 1   
    10     3    11 1   
    11     3    23 1   
    12     3    24 1   
    13     4     5 ar  
    14     4    13 ar  
    15     4    38 1   
    16     5     6 ar  
    17     5    26 1   
    18     6     7 ar  
    19     6    27 1   
    20     7    12 ar  
    21     7    17 1   
    22     8     9 1   
    23     8    11 1   
    24     8    14 1   
    25     8    28 1   
    26     9    29 1   
    27     9    30 1   
    28    10    31 1   
    29    10    32 1   
    30    11    33 1   
    31    11    34 1   
    32    12    13 ar  
    33    12    35 1   
    34    13    36 1   
    35    14    17 1   
    36    15    17 2   
    37    16    17 2   
    38    25    38 1   
    39    37    38 2   
@<TRIPOS>SUBSTRUCTURE
     1 UHT         1 TEMP              0 ****  ****    0 ROOT
