@<TRIPOS>MOLECULE
UHT
   38    39     1     0     0
SMALL
abcg2


@<TRIPOS>ATOM
      1 C10         17.8170    19.8140    -1.8020 c3         1 UHT       0.186100
      2 C13         14.8130    18.6520     1.2200 c6         1 UHT      -0.074400
      3 C15         13.4300    19.0070    -0.8510 c6         1 UHT      -0.074400
      4 C03         19.4420    21.9520     3.0170 ca         1 UHT      -0.152600
      5 C04         18.0950    22.3080     2.9880 ca         1 UHT      -0.083500
      6 C05         17.4360    22.4210     1.7800 ca         1 UHT      -0.031500
      7 C06         18.1320    22.1750     0.6000 ca         1 UHT      -0.270500
      8 C11         15.6460    20.1640    -0.5950 c6         1 UHT       0.223500
      9 C12         16.0510    19.1660     0.4890 c6         1 UHT      -0.085400
     10 C14         13.8150    18.0270     0.2510 c6         1 UHT      -0.077400
     11 C16         14.6610    19.5420    -1.5810 c6         1 UHT      -0.085400
     12 C18         19.4760    21.8260     0.6110 ca         1 UHT      -0.031500
     13 C19         20.1260    21.7120     1.8300 ca         1 UHT      -0.083500
     14 N09         16.7960    20.7380    -1.3200 n3         1 UHT      -0.747500
     15 O08         18.2440    22.6740    -1.9560 o          1 UHT      -0.534000
     16 O17         16.0780    23.0660    -0.7490 o          1 UHT      -0.534000
     17 S07         17.2730    22.2650    -0.9570 sy         1 UHT       1.166600
     18 H1          17.3180    18.9420    -2.2170 h1         1 UHT       0.051367
     19 H2          18.3980    20.2670    -2.5990 h1         1 UHT       0.051367
     20 H3          18.4950    19.4740    -1.0140 h1         1 UHT       0.051367
     21 H4          14.3350    19.4820     1.7510 hc         1 UHT       0.044450
     22 H5          15.1100    17.9280     1.9810 hc         1 UHT       0.044450
     23 H6          12.8750    19.8450    -0.4160 hc         1 UHT       0.044450
     24 H7          12.7580    18.5310    -1.5670 hc         1 UHT       0.044450
     25 H8          21.2340    21.5510     4.1930 h4         1 UHT      -0.004800
     26 H11         17.5630    22.5030     3.9100 ha         1 UHT       0.129000
     27 H12         16.3920    22.7040     1.7590 ha         1 UHT       0.138500
     28 H13         15.1270    20.9910    -0.1050 h1         1 UHT       0.074700
     29 H14         16.5800    18.3190     0.0430 hc         1 UHT       0.048200
     30 H15         16.7400    19.6350     1.1960 hc         1 UHT       0.048200
     31 H16         12.9240    17.6950     0.7890 hc         1 UHT       0.042200
     32 H17         14.2590    17.1330    -0.1990 hc         1 UHT       0.042200
     33 H18         15.1390    18.7200    -2.1230 hc         1 UHT       0.048200
     34 H19         14.3710    20.2880    -2.3220 hc         1 UHT       0.048200
     35 H20         20.0180    21.6540    -0.3080 ha         1 UHT       0.138500
     36 H21         21.1750    21.4410     1.8540 ha         1 UHT       0.129000
     37 O1          19.6730    22.0170     5.3780 o          1 UHT      -0.502100
     38 C02         20.1710    21.8310     4.2950 c          1 UHT       0.578500
@<TRIPOS>BOND
     1     1    14 1   
     2     1    18 1   
     3     1    19 1   
     4     1    20 1   
     5     2     9 1   
     6     2    10 1   
     7     2    21 1   
     8     2    22 1   
     9     3    10 1   
    10     3    11 1   
    11     3    23 1   
    12     3    24 1   
    13     4     5 ar  
    14     4    13 ar  
    15     4    38 1   
    16     5     6 ar  
    17     5    26 1   
    18     6     7 ar  
    19     6    27 1   
    20     7    12 ar  
    21     7    17 1   
    22     8     9 1   
    23     8    11 1   
    24     8    14 1   
    25     8    28 1   
    26     9    29 1   
    27     9    30 1   
    28    10    31 1   
    29    10    32 1   
    30    11    33 1   
    31    11    34 1   
    32    12    13 ar  
    33    12    35 1   
    34    13    36 1   
    35    14    17 1   
    36    15    17 2   
    37    16    17 2   
    38    25    38 1   
    39    37    38 2   
@<TRIPOS>SUBSTRUCTURE
     1 UHT         1 TEMP              0 ****  ****    0 ROOT
