@<TRIPOS>MOLECULE
UHU
   21    22     1     0     0
SMALL
No Charge or Current Charge


@<TRIPOS>ATOM
      1 N1         -45.5940   -66.9410    32.8600 n5         1 UHU      -0.758400
      2 C1         -45.9720   -67.8800    31.7740 cx         1 UHU       0.063500
      3 C2         -44.5750   -67.8940    32.3380 cx         1 UHU       0.063500
      4 C3         -43.6150   -67.4840    31.1940 c5         1 UHU       0.170300
      5 O1         -42.4890   -66.7410    31.6720 oh         1 UHU      -0.649000
      6 C4         -44.5340   -66.6260    30.2560 c5         1 UHU       0.118300
      7 O2         -43.9930   -66.4900    28.9370 oh         1 UHU      -0.663000
      8 C5         -45.8710   -67.4350    30.2950 c5         1 UHU      -0.093700
      9 C6         -47.1240   -66.6960    29.7620 c3         1 UHU       0.171600
     10 O3         -47.3140   -65.4460    30.4370 oh         1 UHU      -0.672000
     11 H2         -45.4380   -66.0080    32.4520 hn         1 UHU       0.420000
     12 H4         -46.6550   -68.6840    32.0600 h1         1 UHU       0.111700
     13 H5         -44.3020   -68.7160    33.0030 h1         1 UHU       0.120700
     14 H7         -43.2680   -68.3780    30.6540 h1         1 UHU       0.058700
     15 H8         -42.0360   -66.3950    30.8700 ho         1 UHU       0.451000
     16 H9         -44.6780   -65.6270    30.6960 h1         1 UHU       0.061700
     17 H10        -44.5780   -65.8670    28.4500 ho         1 UHU       0.448000
     18 H11        -45.7750   -68.3290    29.6670 hc         1 UHU       0.076700
     19 H12        -47.0040   -66.5270    28.6830 h1         1 UHU       0.027200
     20 H13        -48.0030   -67.3420    29.8990 h1         1 UHU       0.027200
     21 H14        -48.1510   -65.0600    30.0940 ho         1 UHU       0.446000
@<TRIPOS>BOND
     1     1     2 1   
     2     1     3 1   
     3     1    11 1   
     4     2     3 1   
     5     2     8 1   
     6     2    12 1   
     7     3     4 1   
     8     3    13 1   
     9     4     5 1   
    10     4     6 1   
    11     4    14 1   
    12     5    15 1   
    13     6     7 1   
    14     6     8 1   
    15     6    16 1   
    16     7    17 1   
    17     8     9 1   
    18     8    18 1   
    19     9    10 1   
    20     9    19 1   
    21     9    20 1   
    22    10    21 1   
@<TRIPOS>SUBSTRUCTURE
     1 UHU         1 TEMP              0 ****  ****    0 ROOT
