@<TRIPOS>MOLECULE
UHU
   21    22     1     0     0
SMALL
abcg2


@<TRIPOS>ATOM
      1 N1         -45.6240   -67.0160    32.7940 n5         1 UHU      -0.758400
      2 C1         -45.9560   -67.9570    31.7150 cx         1 UHU       0.063500
      3 C2         -44.5810   -67.9110    32.2730 cx         1 UHU       0.063500
      4 C3         -43.6610   -67.3910    31.1980 c5         1 UHU       0.170300
      5 O1         -42.6590   -66.5340    31.7410 oh         1 UHU      -0.649000
      6 C4         -44.5790   -66.7060    30.1770 c5         1 UHU       0.118300
      7 O2         -43.9780   -66.7590    28.8850 oh         1 UHU      -0.663000
      8 C5         -45.9210   -67.4570    30.2810 c5         1 UHU      -0.093700
      9 C6         -47.1290   -66.6600    29.8250 c3         1 UHU       0.171600
     10 O3         -47.2700   -65.4980    30.6490 oh         1 UHU      -0.672000
     11 H2         -45.5310   -66.0680    32.4450 hn         1 UHU       0.420000
     12 H4         -46.6620   -68.7360    31.9780 h1         1 UHU       0.111700
     13 H5         -44.2000   -68.6460    32.9700 h1         1 UHU       0.120700
     14 H7         -43.1880   -68.2510    30.7060 h1         1 UHU       0.058700
     15 H8         -42.0660   -66.2750    31.0240 ho         1 UHU       0.451000
     16 H9         -44.7070   -65.6610    30.4680 h1         1 UHU       0.061700
     17 H10        -44.3870   -66.0860    28.3270 ho         1 UHU       0.448000
     18 H11        -45.8530   -68.3360    29.6300 hc         1 UHU       0.076700
     19 H12        -46.9970   -66.3690    28.7760 h1         1 UHU       0.027200
     20 H13        -48.0280   -67.2840    29.8910 h1         1 UHU       0.027200
     21 H14        -47.9920   -64.9640    30.3000 ho         1 UHU       0.446000
@<TRIPOS>BOND
     1     1     2 1   
     2     1     3 1   
     3     1    11 1   
     4     2     3 1   
     5     2     8 1   
     6     2    12 1   
     7     3     4 1   
     8     3    13 1   
     9     4     5 1   
    10     4     6 1   
    11     4    14 1   
    12     5    15 1   
    13     6     7 1   
    14     6     8 1   
    15     6    16 1   
    16     7    17 1   
    17     8     9 1   
    18     8    18 1   
    19     9    10 1   
    20     9    19 1   
    21     9    20 1   
    22    10    21 1   
@<TRIPOS>SUBSTRUCTURE
     1 UHU         1 TEMP              0 ****  ****    0 ROOT
