@<TRIPOS>MOLECULE
UHV
   63    65     1     0     0
SMALL
abcg2


@<TRIPOS>ATOM
      1 N1           7.8780     2.0970    22.8640 ns         1 UHV      -0.150000
      2 N3           9.1690    -1.2500    23.6050 nc         1 UHV      -0.389300
      3 C4           8.2560     1.7030    21.6300 c          1 UHV       0.592100
      4 C5           8.4050     3.2390    23.5390 ca         1 UHV      -0.092000
      5 C6           9.7200     3.2640    24.0090 ca         1 UHV      -0.011300
      6 C7          10.6370     2.0870    23.8480 c3         1 UHV      -0.056800
      7 C8          10.1730     4.4170    24.6570 ca         1 UHV      -0.190000
      8 C10         11.0450     6.7580    25.9690 c3         1 UHV       0.148900
      9 C13          7.5780     0.3070    19.6010 ca         1 UHV      -0.135300
     10 C15          7.7790    -0.1250    16.9100 ca         1 UHV       0.337900
     11 C17          7.3470     1.3650    18.7240 ca         1 UHV      -0.046000
     12 C20         10.1380    -0.9520    21.5790 cd         1 UHV      -0.246000
     13 C21         12.5930    -1.4810    22.3590 c3         1 UHV      -0.090300
     14 C22         13.3120    -0.4560    23.2570 c3         1 UHV      -0.086433
     15 C24         12.9480    -2.9090    22.8130 c3         1 UHV      -0.086433
     16 O1           9.1510     2.2290    20.9860 o          1 UHV      -0.571100
     17 C3           7.4180     0.5200    21.0900 c3         1 UHV       0.083000
     18 C16          7.4510     1.1490    17.3600 ca         1 UHV      -0.160000
     19 N2           7.9890    -1.1530    17.7330 nb         1 UHV      -0.666000
     20 C14          7.8840    -0.9310    19.0480 ca         1 UHV       0.346900
     21 N            7.6410    -0.6880    21.8960 n          1 UHV      -0.419300
     22 C18          8.9410    -0.9640    22.3450 cd         1 UHV       0.395900
     23 C19         11.1100    -1.2840    22.4690 cc         1 UHV       0.211300
     24 C23         13.0200    -1.2780    20.9000 c3         1 UHV      -0.086433
     25 O3          10.5430    -1.4770    23.6820 os         1 UHV      -0.085700
     26 C2           6.5510    -1.5220    22.1120 c          1 UHV       0.616100
     27 O            5.4460    -1.1840    21.7180 o          1 UHV      -0.571100
     28 C1           6.7950    -2.8490    22.7970 c3         1 UHV      -0.148400
     29 C            5.6390    -3.8230    22.6050 c3         1 UHV      -0.079100
     30 C12          7.5640     4.3320    23.7410 ca         1 UHV      -0.084000
     31 C11          8.0140     5.4630    24.3970 ca         1 UHV      -0.138000
     32 C9           9.3330     5.5120    24.8520 ca         1 UHV       0.142100
     33 O2           9.7090     6.6610    25.4760 os         1 UHV      -0.349100
     34 H1           7.0560     1.6640    23.2610 hn         1 UHV       0.161000
     35 H2          10.9080     1.9420    22.8010 hc         1 UHV       0.052033
     36 H3          11.5490     2.2280    24.4250 hc         1 UHV       0.052033
     37 H4          10.1520     1.1690    24.1810 hc         1 UHV       0.052033
     38 H5          11.1900     4.4340    25.0190 ha         1 UHV       0.118000
     39 H6          11.1220     7.7430    26.4240 h1         1 UHV       0.042700
     40 H7          11.2440     5.9910    26.7210 h1         1 UHV       0.042700
     41 H8          11.7710     6.6700    25.1570 h1         1 UHV       0.042700
     42 H9           7.8710    -0.3260    15.8480 h4         1 UHV       0.020100
     43 H10          7.0850     2.3440    19.1050 ha         1 UHV       0.125000
     44 H11         10.2500    -0.7360    20.5340 ha         1 UHV       0.171000
     45 H12         13.0100    -0.5660    24.2990 hc         1 UHV       0.045589
     46 H13         14.3890    -0.6140    23.1910 hc         1 UHV       0.045589
     47 H14         13.0910     0.5620    22.9380 hc         1 UHV       0.045589
     48 H15         12.6670    -3.0730    23.8540 hc         1 UHV       0.045589
     49 H16         12.4390    -3.6510    22.1950 hc         1 UHV       0.045589
     50 H17         14.0240    -3.0600    22.7180 hc         1 UHV       0.045589
     51 H18          6.3730     0.7830    21.2640 h1         1 UHV       0.099700
     52 H19          7.2790     1.9510    16.6540 ha         1 UHV       0.126000
     53 H20          8.0500    -1.7900    19.6860 h4         1 UHV       0.019100
     54 H21         14.0980    -1.4210    20.8170 hc         1 UHV       0.045589
     55 H22         12.5280    -1.9960    20.2410 hc         1 UHV       0.045589
     56 H23         12.7810    -0.2700    20.5560 hc         1 UHV       0.045589
     57 H24          6.9600    -2.6540    23.8580 hc         1 UHV       0.074200
     58 H25          7.7290    -3.2740    22.4250 hc         1 UHV       0.074200
     59 H26          5.8640    -4.7610    23.1140 hc         1 UHV       0.045700
     60 H27          4.7130    -3.4230    23.0170 hc         1 UHV       0.045700
     61 H28          5.4740    -4.0380    21.5480 hc         1 UHV       0.045700
     62 H29          6.5460     4.2880    23.3720 ha         1 UHV       0.117000
     63 H30          7.3630     6.3130    24.5550 ha         1 UHV       0.131000
@<TRIPOS>BOND
     1     1     3 1   
     2     1     4 1   
     3     1    34 1   
     4     2    22 2   
     5     2    25 1   
     6     3    16 2   
     7     3    17 1   
     8     4     5 ar  
     9     4    30 ar  
    10     5     6 1   
    11     5     7 ar  
    12     6    35 1   
    13     6    36 1   
    14     6    37 1   
    15     7    32 ar  
    16     7    38 1   
    17     8    33 1   
    18     8    39 1   
    19     8    40 1   
    20     8    41 1   
    21     9    11 ar  
    22     9    17 1   
    23     9    20 ar  
    24    10    18 ar  
    25    10    19 ar  
    26    10    42 1   
    27    11    18 ar  
    28    11    43 1   
    29    12    22 1   
    30    12    23 2   
    31    12    44 1   
    32    13    14 1   
    33    13    15 1   
    34    13    23 1   
    35    13    24 1   
    36    14    45 1   
    37    14    46 1   
    38    14    47 1   
    39    15    48 1   
    40    15    49 1   
    41    15    50 1   
    42    17    21 1   
    43    17    51 1   
    44    18    52 1   
    45    19    20 ar  
    46    20    53 1   
    47    21    22 1   
    48    21    26 1   
    49    23    25 1   
    50    24    54 1   
    51    24    55 1   
    52    24    56 1   
    53    26    27 2   
    54    26    28 1   
    55    28    29 1   
    56    28    57 1   
    57    28    58 1   
    58    29    59 1   
    59    29    60 1   
    60    29    61 1   
    61    30    31 ar  
    62    30    62 1   
    63    31    32 ar  
    64    31    63 1   
    65    32    33 1   
@<TRIPOS>SUBSTRUCTURE
     1 UHV         1 TEMP              0 ****  ****    0 ROOT
