@<TRIPOS>MOLECULE
UHV
   63    65     1     0     0
SMALL
No Charge or Current Charge


@<TRIPOS>ATOM
      1 N1           8.1960     1.9470    22.7310 ns         1 UHV      -0.150000
      2 N3           8.7570    -1.5260    23.7180 nc         1 UHV      -0.389300
      3 C4           8.1660     1.7500    21.3550 c          1 UHV       0.592100
      4 C5           8.7680     2.9810    23.5260 ca         1 UHV      -0.092000
      5 C6          10.0870     3.4850    23.3580 ca         1 UHV      -0.011300
      6 C7          11.0670     2.9310    22.3310 c3         1 UHV      -0.056800
      7 C8          10.5450     4.5160    24.2050 ca         1 UHV      -0.190000
      8 C10         11.4340     6.6450    25.9800 c3         1 UHV       0.148900
      9 C13          7.6070     0.1070    19.4170 ca         1 UHV      -0.135300
     10 C15          7.9680    -0.5960    16.7640 ca         1 UHV       0.337900
     11 C17          7.1300     0.9700    18.4090 ca         1 UHV      -0.046000
     12 C20          9.9110    -0.7510    21.9320 cd         1 UHV      -0.246000
     13 C21         12.3590    -1.1500    22.8250 c3         1 UHV      -0.090300
     14 C22         12.8970    -0.2440    23.9630 c3         1 UHV      -0.086433
     15 C24         12.8700    -2.5990    23.0370 c3         1 UHV      -0.086433
     16 O1           8.6760     2.5320    20.5590 o          1 UHV      -0.571100
     17 C3           7.3940     0.4670    20.8990 c3         1 UHV       0.083000
     18 C16          7.3200     0.6110    17.0660 ca         1 UHV      -0.160000
     19 N2           8.4180    -1.4430    17.7170 nb         1 UHV      -0.666000
     20 C14          8.2330    -1.0940    19.0120 ca         1 UHV       0.346900
     21 N            7.4650    -0.7200    21.8320 n          1 UHV      -0.419300
     22 C18          8.6550    -1.0280    22.5020 cd         1 UHV       0.395900
     23 C19         10.8400    -1.1430    22.8470 cc         1 UHV       0.211300
     24 C23         12.8960    -0.6290    21.4650 c3         1 UHV      -0.086433
     25 O3          10.1760    -1.6160    23.9550 os         1 UHV      -0.085700
     26 C2           6.2940    -1.5250    21.9580 c          1 UHV       0.616100
     27 O            5.2370    -1.1530    21.4630 o          1 UHV      -0.571100
     28 C1           6.3390    -2.8880    22.6850 c3         1 UHV      -0.148400
     29 C            5.1590    -3.8450    22.3890 c3         1 UHV      -0.079100
     30 C12          7.9640     3.4880    24.5640 ca         1 UHV      -0.084000
     31 C11          8.4340     4.5110    25.4020 ca         1 UHV      -0.138000
     32 C9           9.7210     5.0350    25.2240 ca         1 UHV       0.142100
     33 O2          10.1310     6.0410    26.0760 os         1 UHV      -0.349100
     34 H1           7.6850     1.2520    23.2620 hn         1 UHV       0.161000
     35 H2          11.0070     3.4860    21.3870 hc         1 UHV       0.052033
     36 H3          12.1020     3.0080    22.6860 hc         1 UHV       0.052033
     37 H4          10.8840     1.8740    22.1230 hc         1 UHV       0.052033
     38 H5          11.5530     4.8950    24.0630 ha         1 UHV       0.118000
     39 H6          11.5500     7.4210    26.7470 h1         1 UHV       0.042700
     40 H7          12.2230     5.8980    26.1320 h1         1 UHV       0.042700
     41 H8          11.5760     7.1140    24.9980 h1         1 UHV       0.042700
     42 H9           8.1280    -0.8980    15.7300 h4         1 UHV       0.020100
     43 H10          6.6250     1.9020    18.6600 ha         1 UHV       0.125000
     44 H11         10.1170    -0.3350    20.9560 ha         1 UHV       0.171000
     45 H12         12.5730    -0.6100    24.9450 hc         1 UHV       0.045589
     46 H13         13.9940    -0.2180    23.9600 hc         1 UHV       0.045589
     47 H14         12.5330     0.7840    23.8520 hc         1 UHV       0.045589
     48 H15         12.5440    -2.9960    24.0060 hc         1 UHV       0.045589
     49 H16         12.4880    -3.2650    22.2540 hc         1 UHV       0.045589
     50 H17         13.9660    -2.6380    23.0100 hc         1 UHV       0.045589
     51 H18          6.3640     0.8420    20.9550 h1         1 UHV       0.099700
     52 H19          6.9710     1.2550    16.2640 ha         1 UHV       0.126000
     53 H20          8.6000    -1.8140    19.7410 h4         1 UHV       0.019100
     54 H21         13.9930    -0.6490    21.4430 hc         1 UHV       0.045589
     55 H22         12.5340    -1.2500    20.6360 hc         1 UHV       0.045589
     56 H23         12.5780     0.4030    21.2800 hc         1 UHV       0.045589
     57 H24          6.3990    -2.6880    23.7600 hc         1 UHV       0.074200
     58 H25          7.2980    -3.3750    22.4740 hc         1 UHV       0.074200
     59 H26          5.2840    -4.7870    22.9360 hc         1 UHV       0.045700
     60 H27          4.2060    -3.3970    22.6970 hc         1 UHV       0.045700
     61 H28          5.1050    -4.0740    21.3180 hc         1 UHV       0.045700
     62 H29          6.9600     3.0980    24.7160 ha         1 UHV       0.117000
     63 H30          7.7980     4.9010    26.1920 ha         1 UHV       0.131000
@<TRIPOS>BOND
     1     1     3 1   
     2     1     4 1   
     3     1    34 1   
     4     2    22 2   
     5     2    25 1   
     6     3    16 2   
     7     3    17 1   
     8     4     5 ar  
     9     4    30 ar  
    10     5     6 1   
    11     5     7 ar  
    12     6    35 1   
    13     6    36 1   
    14     6    37 1   
    15     7    32 ar  
    16     7    38 1   
    17     8    33 1   
    18     8    39 1   
    19     8    40 1   
    20     8    41 1   
    21     9    11 ar  
    22     9    17 1   
    23     9    20 ar  
    24    10    18 ar  
    25    10    19 ar  
    26    10    42 1   
    27    11    18 ar  
    28    11    43 1   
    29    12    22 1   
    30    12    23 2   
    31    12    44 1   
    32    13    14 1   
    33    13    15 1   
    34    13    23 1   
    35    13    24 1   
    36    14    45 1   
    37    14    46 1   
    38    14    47 1   
    39    15    48 1   
    40    15    49 1   
    41    15    50 1   
    42    17    21 1   
    43    17    51 1   
    44    18    52 1   
    45    19    20 ar  
    46    20    53 1   
    47    21    22 1   
    48    21    26 1   
    49    23    25 1   
    50    24    54 1   
    51    24    55 1   
    52    24    56 1   
    53    26    27 2   
    54    26    28 1   
    55    28    29 1   
    56    28    57 1   
    57    28    58 1   
    58    29    59 1   
    59    29    60 1   
    60    29    61 1   
    61    30    31 ar  
    62    30    62 1   
    63    31    32 ar  
    64    31    63 1   
    65    32    33 1   
@<TRIPOS>SUBSTRUCTURE
     1 UHV         1 TEMP              0 ****  ****    0 ROOT
