@<TRIPOS>MOLECULE
UHW
   34    35     1     0     0
SMALL
No Charge or Current Charge


@<TRIPOS>ATOM
      1 C10        -23.2430    20.8020    -3.3230 c6         1 UHW       0.163800
      2 C13        -23.9450    23.0880    -2.8040 c6         1 UHW       0.163800
      3 C17        -24.2290    21.9270     1.9550 ca         1 UHW      -0.031500
      4 C03        -22.3440    20.9370     3.1580 ca         1 UHW      -0.150600
      5 C04        -22.5060    19.7520     2.4100 ca         1 UHW      -0.082000
      6 C05        -23.5200    19.6520     1.4410 ca         1 UHW      -0.031500
      7 C06        -24.3840    20.7420     1.2050 ca         1 UHW      -0.276500
      8 C09        -23.7960    20.3210    -1.9450 c6         1 UHW       0.190300
      9 C14        -24.4970    22.6050    -1.4270 c6         1 UHW       0.190300
     10 C18        -23.2150    22.0230     2.9230 ca         1 UHW      -0.082000
     11 N08        -24.9220    21.1740    -1.4610 n3         1 UHW      -0.715500
     12 N11        -22.8210    22.2350    -3.2940 n3         1 UHW      -0.717600
     13 O15        -26.7480    21.5860     0.2530 o          1 UHW      -0.531500
     14 O16        -26.0070    19.2060    -0.2820 o          1 UHW      -0.531500
     15 S07        -25.6850    20.6170    -0.0420 sy         1 UHW       1.149600
     16 H1         -24.0250    20.6520    -4.0820 h1         1 UHW       0.045450
     17 H2         -22.3950    20.1600    -3.6040 h1         1 UHW       0.045450
     18 H3         -23.6150    24.1330    -2.7020 h1         1 UHW       0.045450
     19 H4         -24.7710    23.0810    -3.5310 h1         1 UHW       0.045450
     20 H5         -24.8910    22.7760     1.7910 ha         1 UHW       0.139000
     21 H6         -20.6170    20.1210     4.3060 h4         1 UHW      -0.003800
     22 H9         -21.8460    18.9020     2.5780 ha         1 UHW       0.129500
     23 H10        -23.6280    18.7270     0.8770 ha         1 UHW       0.139000
     24 H11        -24.1170    19.2750    -2.0550 h1         1 UHW       0.061200
     25 H12        -22.9680    20.3300    -1.2210 h1         1 UHW       0.061200
     26 H13        -21.9250    23.7370    -4.5100 h1         1 UHW       0.034367
     27 H14        -21.4150    22.0770    -4.8870 h1         1 UHW       0.034367
     28 H15        -23.0300    22.6440    -5.3780 h1         1 UHW       0.034367
     29 H16        -23.7120    22.7550    -0.6710 h1         1 UHW       0.061200
     30 H17        -25.3390    23.2560    -1.1520 h1         1 UHW       0.061200
     31 H18        -23.1090    22.9450     3.4900 ha         1 UHW       0.129500
     32 O1         -21.0510    22.0230     4.8800 o          1 UHW      -0.501100
     33 C12        -22.2710    22.6970    -4.5860 c3         1 UHW       0.153100
     34 C02        -21.2520    21.0270     4.1920 c          1 UHW       0.578500
@<TRIPOS>BOND
     1     1     8 1   
     2     1    12 1   
     3     1    16 1   
     4     1    17 1   
     5     2     9 1   
     6     2    12 1   
     7     2    18 1   
     8     2    19 1   
     9     3     7 ar  
    10     3    10 ar  
    11     3    20 1   
    12     4     5 ar  
    13     4    10 ar  
    14     4    34 1   
    15     5     6 ar  
    16     5    22 1   
    17     6     7 ar  
    18     6    23 1   
    19     7    15 1   
    20     8    11 1   
    21     8    24 1   
    22     8    25 1   
    23     9    11 1   
    24     9    29 1   
    25     9    30 1   
    26    10    31 1   
    27    11    15 1   
    28    12    33 1   
    29    13    15 2   
    30    14    15 2   
    31    21    34 1   
    32    26    33 1   
    33    27    33 1   
    34    28    33 1   
    35    32    34 2   
@<TRIPOS>SUBSTRUCTURE
     1 UHW         1 TEMP              0 ****  ****    0 ROOT
