@<TRIPOS>MOLECULE
UHW
   34    35     1     0     0
SMALL
bcc


@<TRIPOS>ATOM
      1 C10        -23.2440    20.8510    -3.3280 c6         1 UHW       0.163800
      2 C13        -24.0000    23.0540    -2.8730 c6         1 UHW       0.163800
      3 C17        -24.1810    21.9250     1.9610 ca         1 UHW      -0.049500
      4 C03        -22.4260    20.8800     3.2290 ca         1 UHW      -0.150600
      5 C04        -22.5960    19.7030     2.5090 ca         1 UHW      -0.100000
      6 C05        -23.5510    19.6260     1.5080 ca         1 UHW      -0.049500
      7 C06        -24.3320    20.7420     1.2420 ca         1 UHW      -0.276500
      8 C09        -23.5940    20.4100    -1.9210 c6         1 UHW       0.190300
      9 C14        -24.3660    22.6670    -1.4530 c6         1 UHW       0.190300
     10 C18        -23.2220    21.9910     2.9540 ca         1 UHW      -0.100000
     11 N08        -24.6910    21.2400    -1.4200 n3         1 UHW      -0.715500
     12 N11        -22.8940    22.2550    -3.3550 n3         1 UHW      -0.717600
     13 O15        -26.5670    21.6240     0.1920 o          1 UHW      -0.602300
     14 O16        -25.8210    19.2850    -0.3430 o          1 UHW      -0.602300
     15 S07        -25.5020    20.6800    -0.0950 sy         1 UHW       1.291200
     16 H1         -24.0870    20.6210    -4.0020 h1         1 UHW       0.045450
     17 H2         -22.3900    20.2600    -3.6660 h1         1 UHW       0.045450
     18 H3         -23.7120    24.1070    -2.8740 h1         1 UHW       0.045450
     19 H4         -24.8920    22.9590    -3.5160 h1         1 UHW       0.045450
     20 H5         -24.8050    22.7840     1.7580 ha         1 UHW       0.157000
     21 H6         -20.8340    19.9850     4.4210 h4         1 UHW      -0.003800
     22 H9         -21.9810    18.8390     2.7310 ha         1 UHW       0.147500
     23 H10        -23.6820    18.7060     0.9560 ha         1 UHW       0.157000
     24 H11        -23.8990    19.3660    -1.9400 h1         1 UHW       0.061200
     25 H12        -22.7110    20.5020    -1.2760 h1         1 UHW       0.061200
     26 H13        -22.1660    23.7240    -4.6460 h1         1 UHW       0.034367
     27 H14        -21.5950    22.0890    -4.9800 h1         1 UHW       0.034367
     28 H15        -23.2400    22.5590    -5.4390 h1         1 UHW       0.034367
     29 H16        -23.5260    22.8930    -0.7830 h1         1 UHW       0.061200
     30 H17        -25.2260    23.2500    -1.1340 h1         1 UHW       0.061200
     31 H18        -23.0960    22.9050     3.5190 ha         1 UHW       0.147500
     32 O1         -21.1530    21.9010     4.9530 o          1 UHW      -0.501100
     33 C12        -22.4620    22.6740    -4.6690 c3         1 UHW       0.153100
     34 C02        -21.3920    20.9270     4.2830 c          1 UHW       0.578500
@<TRIPOS>BOND
     1     1     8 1   
     2     1    12 1   
     3     1    16 1   
     4     1    17 1   
     5     2     9 1   
     6     2    12 1   
     7     2    18 1   
     8     2    19 1   
     9     3     7 ar  
    10     3    10 ar  
    11     3    20 1   
    12     4     5 ar  
    13     4    10 ar  
    14     4    34 1   
    15     5     6 ar  
    16     5    22 1   
    17     6     7 ar  
    18     6    23 1   
    19     7    15 1   
    20     8    11 1   
    21     8    24 1   
    22     8    25 1   
    23     9    11 1   
    24     9    29 1   
    25     9    30 1   
    26    10    31 1   
    27    11    15 1   
    28    12    33 1   
    29    13    15 2   
    30    14    15 2   
    31    21    34 1   
    32    26    33 1   
    33    27    33 1   
    34    28    33 1   
    35    32    34 2   
@<TRIPOS>SUBSTRUCTURE
     1 UHW         1 TEMP              0 ****  ****    0 ROOT
