@<TRIPOS>MOLECULE
UHX
   42    45     1     0     0
SMALL
abcg2


@<TRIPOS>ATOM
      1 N1          -4.4380     0.6850     0.0060 nb         1 UHX      -0.360000
      2 C2          -4.7380    -0.6220     0.0150 ca         1 UHX       0.422900
      3 N3          -3.8850    -1.6400     0.0080 nb         1 UHX      -0.305000
      4 C4          -2.6130    -1.2460     0.0280 ca         1 UHX       0.198500
      5 C5          -2.1460     0.0710     0.0670 ca         1 UHX      -0.295800
      6 C6          -3.1590     1.0550     0.0170 ca         1 UHX       0.474900
      7 CAA          3.7910     4.5900    -0.8470 c3         1 UHX       0.148900
      8 NAB         -6.0640    -0.9240     0.0660 nv         1 UHX      -1.041900
      9 NAC         -2.8970     2.3660    -0.0400 nv         1 UHX      -1.078900
     10 CAE          2.3850    -3.7580    -0.6870 ca         1 UHX      -0.151500
     11 CAF          3.2430    -2.0410     0.7810 ca         1 UHX      -0.151500
     12 CAG          1.0800     3.1750     1.1140 ca         1 UHX      -0.175000
     13 CAH          2.0300     2.3990    -0.9560 ca         1 UHX      -0.175000
     14 CAI          1.1490    -3.1290    -0.6830 ca         1 UHX      -0.074500
     15 CAJ          2.0000    -1.4310     0.7840 ca         1 UHX      -0.074500
     16 CAK          0.2040     2.1050     1.1100 ca         1 UHX      -0.071000
     17 CAL          1.1370     1.3350    -0.9480 ca         1 UHX      -0.071000
     18 NAO         -1.5340    -2.0600     0.0030 na         1 UHX      -0.318400
     19 CAQ          3.4150    -3.1980     0.0430 ca         1 UHX       0.173000
     20 CAT          2.0050     3.3300     0.0800 ca         1 UHX       0.140100
     21 CAU          0.9350    -1.9570     0.0470 ca         1 UHX      -0.045800
     22 CAV          0.2130     1.1630     0.0770 ca         1 UHX      -0.066800
     23 CAW         -0.3740    -1.3080     0.0480 cc         1 UHX      -0.028300
     24 CAX         -0.7130     0.0230     0.0810 cd         1 UHX      -0.011400
     25 HAA          4.4900     3.7520    -0.9100 h1         1 UHX       0.041367
     26 HAAA         3.3330     4.7400    -1.8270 h1         1 UHX       0.041367
     27 HAAB         4.3430     5.4870    -0.5790 h1         1 UHX       0.041367
     28 HNAB        -6.7030    -0.2050    -0.2270 hn         1 UHX       0.479500
     29 HNAA        -6.3250    -1.8590    -0.1990 hn         1 UHX       0.479500
     30 HNAC        -3.6550     3.0250    -0.0430 hn         1 UHX       0.502500
     31 HNAD        -1.9580     2.7250    -0.0200 hn         1 UHX       0.502500
     32 HAE          2.5420    -4.6630    -1.2580 ha         1 UHX       0.133500
     33 HAF          4.0610    -1.6270     1.3550 ha         1 UHX       0.133500
     34 HAG          1.0580     3.8940     1.9240 ha         1 UHX       0.124000
     35 HAH          2.7280     2.4840    -1.7760 ha         1 UHX       0.124000
     36 HAI          0.3510    -3.5570    -1.2760 ha         1 UHX       0.123500
     37 HAJ          1.8570    -0.5410     1.3800 ha         1 UHX       0.123500
     38 HAK         -0.4890     1.9910     1.9350 ha         1 UHX       0.122000
     39 HAL          1.1660     0.6240    -1.7640 ha         1 UHX       0.122000
     40 HNAO        -1.5770    -3.0660     0.0530 hn         1 UHX       0.361000
     41 FAD          4.6170    -3.7940     0.0390 f          1 UHX      -0.178000
     42 OAP          2.8240     4.3960     0.1660 os         1 UHX      -0.342100
@<TRIPOS>BOND
     1     1     2 ar  
     2     1     6 ar  
     3     2     3 ar  
     4     2     8 1   
     5     3     4 ar  
     6     4     5 ar  
     7     4    18 1   
     8     5     6 ar  
     9     5    24 1   
    10     6     9 1   
    11     7    25 1   
    12     7    26 1   
    13     7    27 1   
    14     7    42 1   
    15     8    28 1   
    16     8    29 1   
    17     9    30 1   
    18     9    31 1   
    19    10    14 ar  
    20    10    19 ar  
    21    10    32 1   
    22    11    15 ar  
    23    11    19 ar  
    24    11    33 1   
    25    12    16 ar  
    26    12    20 ar  
    27    12    34 1   
    28    13    17 ar  
    29    13    20 ar  
    30    13    35 1   
    31    14    21 ar  
    32    14    36 1   
    33    15    21 ar  
    34    15    37 1   
    35    16    22 ar  
    36    16    38 1   
    37    17    22 ar  
    38    17    39 1   
    39    18    23 1   
    40    18    40 1   
    41    19    41 1   
    42    20    42 1   
    43    21    23 1   
    44    22    24 1   
    45    23    24 2   
@<TRIPOS>SUBSTRUCTURE
     1 UHX         1 TEMP              0 ****  ****    0 ROOT
