@<TRIPOS>MOLECULE
UHX
   42    45     1     0     0
SMALL
No Charge or Current Charge


@<TRIPOS>ATOM
      1 N1          -4.4700     0.7820     0.1400 nb         1 UHX      -0.360000
      2 C2          -4.8110    -0.5130     0.0990 ca         1 UHX       0.422900
      3 N3          -3.9990    -1.5810     0.0690 nb         1 UHX      -0.305000
      4 C4          -2.6850    -1.3040     0.1200 ca         1 UHX       0.198500
      5 C5          -2.2190    -0.0100     0.2130 ca         1 UHX      -0.295800
      6 C6          -3.1580     1.0340     0.1930 ca         1 UHX       0.474900
      7 CAA          3.8650     4.5070    -0.8780 c3         1 UHX       0.148900
      8 NAB         -6.1350    -0.7700     0.0460 nv         1 UHX      -1.041900
      9 NAC         -2.8410     2.3440     0.1370 nv         1 UHX      -1.078900
     10 CAE          2.5580    -3.5550    -0.9030 ca         1 UHX      -0.151500
     11 CAF          3.2770    -1.9840     0.8100 ca         1 UHX      -0.151500
     12 CAG          0.8740     3.2690     0.9720 ca         1 UHX      -0.175000
     13 CAH          2.0980     2.1960    -0.8290 ca         1 UHX      -0.175000
     14 CAI          1.2570    -3.0220    -0.8470 ca         1 UHX      -0.074500
     15 CAJ          1.9760    -1.4510     0.8670 ca         1 UHX      -0.074500
     16 CAK         -0.0030     2.1730     1.0320 ca         1 UHX      -0.071000
     17 CAL          1.2190     1.1000    -0.7670 ca         1 UHX      -0.071000
     18 NAO         -1.5980    -2.1500     0.0440 na         1 UHX      -0.318400
     19 CAQ          3.5630    -3.0320    -0.0770 ca         1 UHX       0.173000
     20 CAT          1.9240     3.2910     0.0430 ca         1 UHX       0.140100
     21 CAU          0.9600    -1.9570     0.0280 ca         1 UHX      -0.045800
     22 CAV          0.1500     1.0820     0.1530 ca         1 UHX      -0.066800
     23 CAW         -0.4020    -1.4220     0.0840 cc         1 UHX      -0.028300
     24 CAX         -0.7580    -0.0840     0.2330 cd         1 UHX      -0.011400
     25 HAA          4.5820     3.6910    -0.7220 h1         1 UHX       0.041367
     26 HAAA         3.5190     4.4800    -1.9190 h1         1 UHX       0.041367
     27 HAAB         4.3900     5.4560    -0.7190 h1         1 UHX       0.041367
     28 HNAB        -6.7620    -0.0000    -0.1720 hn         1 UHX       0.479500
     29 HNAA        -6.4360    -1.7020    -0.2260 hn         1 UHX       0.479500
     30 HNAC        -3.5680     2.9860    -0.1650 hn         1 UHX       0.502500
     31 HNAD        -1.8890     2.5800    -0.1230 hn         1 UHX       0.502500
     32 HAE          2.7860    -4.3700    -1.5850 ha         1 UHX       0.133500
     33 HAF          4.0580    -1.5900     1.4540 ha         1 UHX       0.133500
     34 HAG          0.7470     4.1020     1.6590 ha         1 UHX       0.124000
     35 HAH          2.9030     2.1760    -1.5580 ha         1 UHX       0.124000
     36 HAI          0.4830    -3.4290    -1.4930 ha         1 UHX       0.123500
     37 HAJ          1.7590    -0.6490     1.5680 ha         1 UHX       0.123500
     38 HAK         -0.7820     2.1550     1.7910 ha         1 UHX       0.122000
     39 HAL          1.3590     0.2700    -1.4550 ha         1 UHX       0.122000
     40 HNAO        -1.6670    -3.1580    -0.0310 hn         1 UHX       0.361000
     41 FAD          4.8120    -3.5450    -0.1310 f          1 UHX      -0.178000
     42 OAP          2.7550     4.3920     0.0320 os         1 UHX      -0.342100
@<TRIPOS>BOND
     1     1     2 ar  
     2     1     6 ar  
     3     2     3 ar  
     4     2     8 1   
     5     3     4 ar  
     6     4     5 ar  
     7     4    18 1   
     8     5     6 ar  
     9     5    24 1   
    10     6     9 1   
    11     7    25 1   
    12     7    26 1   
    13     7    27 1   
    14     7    42 1   
    15     8    28 1   
    16     8    29 1   
    17     9    30 1   
    18     9    31 1   
    19    10    14 ar  
    20    10    19 ar  
    21    10    32 1   
    22    11    15 ar  
    23    11    19 ar  
    24    11    33 1   
    25    12    16 ar  
    26    12    20 ar  
    27    12    34 1   
    28    13    17 ar  
    29    13    20 ar  
    30    13    35 1   
    31    14    21 ar  
    32    14    36 1   
    33    15    21 ar  
    34    15    37 1   
    35    16    22 ar  
    36    16    38 1   
    37    17    22 ar  
    38    17    39 1   
    39    18    23 1   
    40    18    40 1   
    41    19    41 1   
    42    20    42 1   
    43    21    23 1   
    44    22    24 1   
    45    23    24 2   
@<TRIPOS>SUBSTRUCTURE
     1 UHX         1 TEMP              0 ****  ****    0 ROOT
