@<TRIPOS>MOLECULE
UHZ
   23    23     1     0     0
SMALL
No Charge or Current Charge


@<TRIPOS>ATOM
      1 C03         17.1980    21.1580     1.1140 ca         1 UHZ      -0.153200
      2 C04         16.8420    21.6820     2.3780 ca         1 UHZ      -0.050000
      3 C05         17.7450    21.6260     3.4530 ca         1 UHZ      -0.064000
      4 C06         19.0240    21.0590     3.2820 ca         1 UHZ      -0.142600
      5 C07         19.3830    20.5440     2.0180 ca         1 UHZ      -0.109000
      6 C08         18.4740    20.5750     0.9410 ca         1 UHZ       0.176100
      7 C12         18.7610    18.3630    -2.1620 c3         1 UHZ      -0.335100
      8 C14         20.0080    21.0110     4.4240 c          1 UHZ       0.580500
      9 N02         16.2240    21.2400    -0.0110 no         1 UHZ       0.705200
     10 O01         15.4690    22.2210    -0.0430 o          1 UHZ      -0.388000
     11 O09         18.8700    20.1170    -0.2900 os         1 UHZ      -0.430800
     12 O11         18.3710    17.7160     0.3920 o          1 UHZ      -0.522000
     13 O13         20.7150    18.3800    -0.3690 o          1 UHZ      -0.522000
     14 O16         16.0950    20.2550    -0.7500 o          1 UHZ      -0.388000
     15 S10         19.2560    18.5250    -0.4560 s6         1 UHZ       1.309700
     16 H1          15.8620    22.1310     2.5340 ha         1 UHZ       0.158000
     17 H2          17.4480    22.0340     4.4190 ha         1 UHZ       0.152000
     18 H3          20.3790    20.1310     1.8700 ha         1 UHZ       0.152000
     19 H4          18.9670    17.3320    -2.4630 h1         1 UHZ       0.117700
     20 H5          17.6930    18.5910    -2.2130 h1         1 UHZ       0.117700
     21 H6          19.3530    19.0780    -2.7410 h1         1 UHZ       0.117700
     22 H7          20.9940    20.5500     4.1960 h4         1 UHZ       0.008200
     23 O1          19.7620    21.4450     5.5450 o          1 UHZ      -0.489100
@<TRIPOS>BOND
     1     1     2 ar  
     2     1     6 ar  
     3     1     9 1   
     4     2     3 ar  
     5     2    16 1   
     6     3     4 ar  
     7     3    17 1   
     8     4     5 ar  
     9     4     8 1   
    10     5     6 ar  
    11     5    18 1   
    12     6    11 1   
    13     7    15 1   
    14     7    19 1   
    15     7    20 1   
    16     7    21 1   
    17     8    22 1   
    18     8    23 2   
    19     9    10 1   
    20     9    14 1   
    21    11    15 1   
    22    12    15 2   
    23    13    15 2   
@<TRIPOS>SUBSTRUCTURE
     1 UHZ         1 TEMP              0 ****  ****    0 ROOT
