@<TRIPOS>MOLECULE
UHZ
   23    23     1     0     0
SMALL
bcc


@<TRIPOS>ATOM
      1 C03         17.2220    21.0740     1.1780 ca         1 UHZ      -0.153200
      2 C04         16.8540    21.6050     2.4080 ca         1 UHZ      -0.068000
      3 C05         17.7570    21.6070     3.4510 ca         1 UHZ      -0.082000
      4 C06         19.0420    21.1100     3.2530 ca         1 UHZ      -0.142600
      5 C07         19.4120    20.5980     2.0180 ca         1 UHZ      -0.127000
      6 C08         18.5020    20.5620     0.9740 ca         1 UHZ       0.176100
      7 C12         18.8580    18.4440    -2.2070 c3         1 UHZ      -0.224300
      8 C14         20.0450    21.1270     4.3430 c          1 UHZ       0.580500
      9 N02         16.2340    21.1040     0.1060 no         1 UHZ       0.325200
     10 O01         15.4290    22.0030     0.1300 o          1 UHZ      -0.198000
     11 O09         18.9010    20.1070    -0.2490 os         1 UHZ      -0.430800
     12 O11         17.8990    17.8440     0.2130 o          1 UHZ      -0.592800
     13 O13         20.3580    18.0860    -0.0580 o          1 UHZ      -0.592800
     14 O16         16.2670    20.2360    -0.7290 o          1 UHZ      -0.198000
     15 S10         19.0210    18.4670    -0.4490 s6         1 UHZ       1.340500
     16 H1          15.8600    22.0020     2.5520 ha         1 UHZ       0.176000
     17 H2          17.4640    22.0060     4.4120 ha         1 UHZ       0.170000
     18 H3          20.4230    20.2430     1.8560 ha         1 UHZ       0.170000
     19 H4          18.9730    17.4060    -2.5170 h1         1 UHZ       0.117700
     20 H5          17.8760    18.8140    -2.4870 h1         1 UHZ       0.117700
     21 H6          19.6450    19.0510    -2.6470 h1         1 UHZ       0.117700
     22 H7          21.0380    20.7340     4.0640 h4         1 UHZ       0.008200
     23 O1          19.8160    21.5340     5.4530 o          1 UHZ      -0.489100
@<TRIPOS>BOND
     1     1     2 ar  
     2     1     6 ar  
     3     1     9 1   
     4     2     3 ar  
     5     2    16 1   
     6     3     4 ar  
     7     3    17 1   
     8     4     5 ar  
     9     4     8 1   
    10     5     6 ar  
    11     5    18 1   
    12     6    11 1   
    13     7    15 1   
    14     7    19 1   
    15     7    20 1   
    16     7    21 1   
    17     8    22 1   
    18     8    23 2   
    19     9    10 1   
    20     9    14 1   
    21    11    15 1   
    22    12    15 2   
    23    13    15 2   
@<TRIPOS>SUBSTRUCTURE
     1 UHZ         1 TEMP              0 ****  ****    0 ROOT
