@<TRIPOS>MOLECULE
UI1
   52    55     1     0     0
SMALL
abcg2


@<TRIPOS>ATOM
      1 N1          28.9510    11.4570    28.1240 n8         1 UI1      -1.000200
      2 C2          28.1060    10.8160    29.1170 c3         1 UI1       0.202100
      3 C3          27.2030    11.8080    29.8040 ca         1 UI1      -0.111300
      4 C4          26.5540    12.8100    29.0860 ca         1 UI1      -0.073000
      5 C5          25.7020    13.6990    29.7150 ca         1 UI1      -0.147000
      6 C6          25.4690    13.6170    31.0900 ca         1 UI1      -0.024000
      7 N7          24.5710    14.5390    31.6430 ns         1 UI1      -0.145000
      8 C8          24.4890    14.9550    32.9310 c          1 UI1       0.616700
      9 O9          25.2340    14.5790    33.8190 o          1 UI1      -0.568100
     10 C10         23.4040    15.9470    33.2000 ca         1 UI1      -0.117600
     11 C11         23.6290    16.8850    34.2270 ca         1 UI1      -0.086000
     12 C12         22.6770    17.8180    34.5530 ca         1 UI1       0.321000
     13 N13         22.8980    18.8080    35.5080 nu         1 UI1      -0.944900
     14 C14         23.6070    18.7260    36.6700 ca         1 UI1       0.375900
     15 N15         23.7600    19.8850    37.3160 nb         1 UI1      -0.229500
     16 C16         24.4250    19.8400    38.4580 ca         1 UI1       0.150900
     17 C17         24.9460    18.6630    38.9750 ca         1 UI1      -0.273000
     18 C18         24.7230    17.5260    38.2200 ca         1 UI1       0.150900
     19 N19         24.0580    17.5430    37.0740 nb         1 UI1      -0.229500
     20 C20         21.4210    17.8170    33.8710 ca         1 UI1      -0.048000
     21 C21         20.3740    18.7040    34.2000 ca         1 UI1      -0.081000
     22 C22         19.1780    18.6820    33.5250 ca         1 UI1      -0.186900
     23 C23         18.9830    17.7500    32.4800 ca         1 UI1      -0.084000
     24 C24         19.9740    16.8720    32.1480 ca         1 UI1      -0.100000
     25 C25         21.2100    16.8740    32.8340 ca         1 UI1      -0.022000
     26 C26         22.2180    15.9420    32.5120 ca         1 UI1      -0.098000
     27 C27         18.1000    19.6400    33.9030 ce         1 UI1       0.661800
     28 N28         18.2990    20.8420    34.2900 n2         1 UI1      -0.841100
     29 N29         16.8340    19.1570    33.7640 nv         1 UI1      -1.034200
     30 C30         26.1110    12.6190    31.8200 ca         1 UI1      -0.147000
     31 C31         26.9670    11.7380    31.1710 ca         1 UI1      -0.073000
     32 HN11        29.4750    10.7520    27.6220 hn         1 UI1       0.396500
     33 HN12        29.6380    12.0380    28.5890 hn         1 UI1       0.396500
     34 H21A        27.4850    10.0790    28.5990 h1         1 UI1       0.033700
     35 H22         28.6610    10.2550    29.8820 h1         1 UI1       0.033700
     36 H4          26.7260    12.9040    28.0220 ha         1 UI1       0.120000
     37 H5          25.2120    14.4710    29.1330 ha         1 UI1       0.125500
     38 HN7         24.0130    15.0430    30.9710 hn         1 UI1       0.153000
     39 H11         24.5780    16.8780    34.7430 ha         1 UI1       0.157000
     40 H13         22.5460    19.7320    35.3080 hn         1 UI1       0.515000
     41 H16         24.5490    20.7810    38.9820 h4         1 UI1       0.026100
     42 H17         25.4920    18.6380    39.9060 ha         1 UI1       0.138000
     43 H18         25.0890    16.5590    38.5480 h4         1 UI1       0.026100
     44 H21         20.4910    19.3900    35.0290 ha         1 UI1       0.122000
     45 H23         18.0500    17.7390    31.9320 ha         1 UI1       0.128000
     46 H24         19.8250    16.1590    31.3470 ha         1 UI1       0.119000
     47 H26         22.0140    15.2120    31.7380 ha         1 UI1       0.120000
     48 H28         19.2810    21.0820    34.2350 hn         1 UI1       0.387400
     49 H291        16.0940    19.7400    34.1210 hn         1 UI1       0.471000
     50 H292        16.6790    18.1700    33.8800 hn         1 UI1       0.471000
     51 H30         25.9540    12.5130    32.8810 ha         1 UI1       0.125500
     52 H31         27.4600    10.9730    31.7600 ha         1 UI1       0.120000
@<TRIPOS>BOND
     1     1     2 1   
     2     1    32 1   
     3     1    33 1   
     4     2     3 1   
     5     2    34 1   
     6     2    35 1   
     7     3     4 ar  
     8     3    31 ar  
     9     4     5 ar  
    10     4    36 1   
    11     5     6 ar  
    12     5    37 1   
    13     6     7 1   
    14     6    30 ar  
    15     7     8 1   
    16     7    38 1   
    17     8     9 2   
    18     8    10 1   
    19    10    11 ar  
    20    10    26 ar  
    21    11    12 ar  
    22    11    39 1   
    23    12    13 1   
    24    12    20 ar  
    25    13    14 1   
    26    13    40 1   
    27    14    15 ar  
    28    14    19 ar  
    29    15    16 ar  
    30    16    17 ar  
    31    16    41 1   
    32    17    18 ar  
    33    17    42 1   
    34    18    19 ar  
    35    18    43 1   
    36    20    21 ar  
    37    20    25 ar  
    38    21    22 ar  
    39    21    44 1   
    40    22    23 ar  
    41    22    27 1   
    42    23    24 ar  
    43    23    45 1   
    44    24    25 ar  
    45    24    46 1   
    46    25    26 ar  
    47    26    47 1   
    48    27    28 2   
    49    27    29 1   
    50    28    48 1   
    51    29    49 1   
    52    29    50 1   
    53    30    31 ar  
    54    30    51 1   
    55    31    52 1   
@<TRIPOS>SUBSTRUCTURE
     1 UI1         1 TEMP              0 ****  ****    0 ROOT
