@<TRIPOS>MOLECULE
UI1
   52    55     1     0     0
SMALL
No Charge or Current Charge


@<TRIPOS>ATOM
      1 N1          28.7120    11.1910    27.8670 n8         1 UI1      -1.000200
      2 C2          27.9560    10.5910    28.9810 c3         1 UI1       0.202100
      3 C3          27.1190    11.6350    29.7070 ca         1 UI1      -0.111300
      4 C4          25.8430    11.9820    29.2280 ca         1 UI1      -0.073000
      5 C5          25.0670    12.9390    29.9040 ca         1 UI1      -0.147000
      6 C6          25.5490    13.5670    31.0680 ca         1 UI1      -0.024000
      7 N7          24.7020    14.5230    31.6960 ns         1 UI1      -0.145000
      8 C8          24.8680    15.3460    32.8050 c          1 UI1       0.616700
      9 O9          25.8950    15.3740    33.4760 o          1 UI1      -0.568100
     10 C10         23.6840    16.2350    33.1520 ca         1 UI1      -0.117600
     11 C11         23.7700    17.1040    34.2620 ca         1 UI1      -0.086000
     12 C12         22.7050    17.9490    34.6320 ca         1 UI1       0.321000
     13 N13         22.8560    18.8160    35.7300 nu         1 UI1      -0.944900
     14 C14         23.4840    18.7080    36.9640 ca         1 UI1       0.375900
     15 N15         23.5090    19.8410    37.6880 nb         1 UI1      -0.229500
     16 C16         24.0990    19.7720    38.8980 ca         1 UI1       0.150900
     17 C17         24.6530    18.5720    39.3720 ca         1 UI1      -0.273000
     18 C18         24.5690    17.4440    38.5390 ca         1 UI1       0.150900
     19 N19         23.9800    17.5090    37.3290 nb         1 UI1      -0.229500
     20 C20         21.5130    17.9420    33.8590 ca         1 UI1      -0.048000
     21 C21         20.4050    18.7660    34.1810 ca         1 UI1      -0.081000
     22 C22         19.2160    18.7330    33.4140 ca         1 UI1      -0.186900
     23 C23         19.1600    17.8790    32.2910 ca         1 UI1      -0.084000
     24 C24         20.2480    17.0550    31.9670 ca         1 UI1      -0.100000
     25 C25         21.4180    17.0770    32.7450 ca         1 UI1      -0.022000
     26 C26         22.4880    16.2330    32.3980 ca         1 UI1      -0.098000
     27 C27         18.0670    19.6360    33.7380 ce         1 UI1       0.661800
     28 N28         18.1900    20.7280    34.3700 n2         1 UI1      -0.841100
     29 N29         16.8250    19.1880    33.4840 nv         1 UI1      -1.034200
     30 C30         26.8300    13.2140    31.5490 ca         1 UI1      -0.147000
     31 C31         27.6060    12.2560    30.8720 ca         1 UI1      -0.073000
     32 HN11        29.3330    10.4770    27.4660 hn         1 UI1       0.396500
     33 HN12        29.3590    11.8890    28.2510 hn         1 UI1       0.396500
     34 H21A        27.3040     9.8010    28.5830 h1         1 UI1       0.033700
     35 H22         28.6650    10.1280    29.6820 h1         1 UI1       0.033700
     36 H4          25.4530    11.5100    28.3280 ha         1 UI1       0.120000
     37 H5          24.0830    13.1940    29.5160 ha         1 UI1       0.125500
     38 HN7         23.8040    14.6210    31.2440 hn         1 UI1       0.153000
     39 H11         24.6900    17.1420    34.8370 ha         1 UI1       0.157000
     40 H13         22.3390    19.6890    35.6380 hn         1 UI1       0.515000
     41 H16         24.1260    20.6850    39.4900 h4         1 UI1       0.026100
     42 H17         25.1280    18.5170    40.3480 ha         1 UI1       0.138000
     43 H18         24.9750    16.4800    38.8420 h4         1 UI1       0.026100
     44 H21         20.4470    19.4190    35.0490 ha         1 UI1       0.122000
     45 H23         18.2760    17.8550    31.6570 ha         1 UI1       0.128000
     46 H24         20.1780    16.4000    31.1010 ha         1 UI1       0.119000
     47 H26         22.3740    15.5840    31.5340 ha         1 UI1       0.120000
     48 H28         19.1910    20.9570    34.4090 hn         1 UI1       0.387400
     49 H291        16.1080    19.6690    34.0120 hn         1 UI1       0.471000
     50 H292        16.7290    18.1820    33.4210 hn         1 UI1       0.471000
     51 H30         27.2440    13.6640    32.4450 ha         1 UI1       0.125500
     52 H31         28.5900    11.9960    31.2570 ha         1 UI1       0.120000
@<TRIPOS>BOND
     1     1     2 1   
     2     1    32 1   
     3     1    33 1   
     4     2     3 1   
     5     2    34 1   
     6     2    35 1   
     7     3     4 ar  
     8     3    31 ar  
     9     4     5 ar  
    10     4    36 1   
    11     5     6 ar  
    12     5    37 1   
    13     6     7 1   
    14     6    30 ar  
    15     7     8 1   
    16     7    38 1   
    17     8     9 2   
    18     8    10 1   
    19    10    11 ar  
    20    10    26 ar  
    21    11    12 ar  
    22    11    39 1   
    23    12    13 1   
    24    12    20 ar  
    25    13    14 1   
    26    13    40 1   
    27    14    15 ar  
    28    14    19 ar  
    29    15    16 ar  
    30    16    17 ar  
    31    16    41 1   
    32    17    18 ar  
    33    17    42 1   
    34    18    19 ar  
    35    18    43 1   
    36    20    21 ar  
    37    20    25 ar  
    38    21    22 ar  
    39    21    44 1   
    40    22    23 ar  
    41    22    27 1   
    42    23    24 ar  
    43    23    45 1   
    44    24    25 ar  
    45    24    46 1   
    46    25    26 ar  
    47    26    47 1   
    48    27    28 2   
    49    27    29 1   
    50    28    48 1   
    51    29    49 1   
    52    29    50 1   
    53    30    31 ar  
    54    30    51 1   
    55    31    52 1   
@<TRIPOS>SUBSTRUCTURE
     1 UI1         1 TEMP              0 ****  ****    0 ROOT
