@<TRIPOS>MOLECULE
UI2
   33    35     1     0     0
SMALL
No Charge or Current Charge


@<TRIPOS>ATOM
      1 C1          -0.3770    -3.3320     0.2900 ca         1 UI2      -0.080000
      2 C2           1.0140    -3.2390     0.1490 ca         1 UI2      -0.120000
      3 C3           1.6380    -1.9800     0.1130 ca         1 UI2      -0.013000
      4 C4           0.8690    -0.7950     0.2140 ca         1 UI2      -0.059000
      5 C5          -0.5450    -0.8900     0.3500 ca         1 UI2       0.320000
      6 C6          -1.1470    -2.1640     0.3940 ca         1 UI2      -0.117000
      7 C10          3.0350    -1.9090    -0.0210 ca         1 UI2      -0.103000
      8 C11          3.6830    -0.6660    -0.0660 ca         1 UI2      -0.085000
      9 C12          2.9410     0.5340     0.0060 ca         1 UI2      -0.194900
     10 C13          1.5360     0.4550     0.1620 ca         1 UI2      -0.077000
     11 N17         -1.3420     0.2600     0.4890 nu         1 UI2      -0.945900
     12 C18         -2.6210     0.6050     0.0720 ca         1 UI2       0.379900
     13 N19         -3.0700     1.7820     0.5420 nb         1 UI2      -0.234000
     14 C20         -4.3030     2.1580     0.1490 ca         1 UI2       0.150400
     15 C21         -5.0720     1.3560    -0.7100 ca         1 UI2      -0.277000
     16 C22         -4.5070     0.1470    -1.1480 ca         1 UI2       0.150400
     17 N23         -3.2750    -0.2320    -0.7580 nb         1 UI2      -0.234000
     18 C28          3.6380     1.8580    -0.0080 ce         1 UI2       0.663800
     19 N29          3.1610     2.9080     0.5190 n2         1 UI2      -0.845100
     20 N30          4.7490     1.9740    -0.7560 nv         1 UI2      -1.034200
     21 H1          -0.8570    -4.3070     0.3280 ha         1 UI2       0.117000
     22 H2           1.6060    -4.1490     0.0720 ha         1 UI2       0.118000
     23 H6          -2.2190    -2.2560     0.5320 ha         1 UI2       0.133000
     24 H10          3.6250    -2.8200    -0.0860 ha         1 UI2       0.117000
     25 H11          4.7670    -0.6420    -0.1500 ha         1 UI2       0.125000
     26 H13          0.9650     1.3780     0.2120 ha         1 UI2       0.119000
     27 H17         -0.8610     1.0410     0.9320 hn         1 UI2       0.515000
     28 H20         -4.6760     3.1090     0.5270 h4         1 UI2       0.023600
     29 H21         -6.0660     1.6600    -1.0260 ha         1 UI2       0.137000
     30 H22         -5.0440    -0.5240    -1.8170 h4         1 UI2       0.023600
     31 H29          2.3660     2.6290     1.1060 hn         1 UI2       0.387400
     32 H301         4.9740     2.9310    -0.9970 hn         1 UI2       0.470000
     33 H302         4.8450     1.2960    -1.5010 hn         1 UI2       0.470000
@<TRIPOS>BOND
     1     1     2 ar  
     2     1     6 ar  
     3     1    21 1   
     4     2     3 ar  
     5     2    22 1   
     6     3     4 ar  
     7     3     7 ar  
     8     4     5 ar  
     9     4    10 ar  
    10     5     6 ar  
    11     5    11 1   
    12     6    23 1   
    13     7     8 ar  
    14     7    24 1   
    15     8     9 ar  
    16     8    25 1   
    17     9    10 ar  
    18     9    18 1   
    19    10    26 1   
    20    11    12 1   
    21    11    27 1   
    22    12    13 ar  
    23    12    17 ar  
    24    13    14 ar  
    25    14    15 ar  
    26    14    28 1   
    27    15    16 ar  
    28    15    29 1   
    29    16    17 ar  
    30    16    30 1   
    31    18    19 2   
    32    18    20 1   
    33    19    31 1   
    34    20    32 1   
    35    20    33 1   
@<TRIPOS>SUBSTRUCTURE
     1 UI2         1 TEMP              0 ****  ****    0 ROOT
