@<TRIPOS>MOLECULE
UI2
   33    35     1     0     0
SMALL
bcc


@<TRIPOS>ATOM
      1 C1          -0.3940    -3.3070     0.2780 ca         1 UI2      -0.098000
      2 C2           0.9640    -3.2360     0.1370 ca         1 UI2      -0.138000
      3 C3           1.6050    -1.9780     0.1200 ca         1 UI2      -0.013000
      4 C4           0.8340    -0.7910     0.2370 ca         1 UI2      -0.059000
      5 C5          -0.5790    -0.9010     0.4160 ca         1 UI2       0.181600
      6 C6          -1.1670    -2.1420     0.4300 ca         1 UI2      -0.135000
      7 C10          3.0060    -1.8680    -0.0320 ca         1 UI2      -0.121000
      8 C11          3.6190    -0.6490    -0.0880 ca         1 UI2      -0.103000
      9 C12          2.8560     0.5380     0.0030 ca         1 UI2      -0.194900
     10 C13          1.4940     0.4550     0.1600 ca         1 UI2      -0.095000
     11 N17         -1.3100     0.2720     0.6190 nu         1 UI2      -0.752300
     12 C18         -2.5430     0.5930     0.1370 ca         1 UI2       0.905900
     13 N19         -3.0350     1.7510     0.5880 nb         1 UI2      -0.760000
     14 C20         -4.2210     2.1070     0.1250 ca         1 UI2       0.478700
     15 C21         -4.9360     1.3360    -0.7790 ca         1 UI2      -0.425600
     16 C22         -4.3250     0.1590    -1.1750 ca         1 UI2       0.478700
     17 N23         -3.1370    -0.2220    -0.7290 nb         1 UI2      -0.760000
     18 C28          3.5110     1.8750    -0.0660 ce         1 UI2       0.663800
     19 N29          3.1310     2.9070     0.5860 n2         1 UI2      -0.845100
     20 N30          4.6140     1.9300    -0.8640 nv         1 UI2      -0.923800
     21 H1          -0.8900    -4.2680     0.2940 ha         1 UI2       0.135000
     22 H2           1.5600    -4.1350     0.0360 ha         1 UI2       0.136000
     23 H6          -2.2330    -2.2360     0.5750 ha         1 UI2       0.151000
     24 H10          3.5950    -2.7730    -0.1050 ha         1 UI2       0.135000
     25 H11          4.6940    -0.5940    -0.1920 ha         1 UI2       0.143000
     26 H13          0.9140     1.3690     0.1830 ha         1 UI2       0.137000
     27 H17         -0.9080     0.9720     1.2220 hn         1 UI2       0.459800
     28 H20         -4.6180     3.0480     0.4900 h4         1 UI2       0.023600
     29 H21         -5.9050     1.6330    -1.1480 ha         1 UI2       0.155000
     30 H22         -4.8090    -0.5070    -1.8820 h4         1 UI2       0.023600
     31 H29          2.3720     2.6770     1.2160 hn         1 UI2       0.387400
     32 H301         5.0060     2.8450    -1.0210 hn         1 UI2       0.414800
     33 H302         4.6650     1.3150    -1.6590 hn         1 UI2       0.414800
@<TRIPOS>BOND
     1     1     2 ar  
     2     1     6 ar  
     3     1    21 1   
     4     2     3 ar  
     5     2    22 1   
     6     3     4 ar  
     7     3     7 ar  
     8     4     5 ar  
     9     4    10 ar  
    10     5     6 ar  
    11     5    11 1   
    12     6    23 1   
    13     7     8 ar  
    14     7    24 1   
    15     8     9 ar  
    16     8    25 1   
    17     9    10 ar  
    18     9    18 1   
    19    10    26 1   
    20    11    12 1   
    21    11    27 1   
    22    12    13 ar  
    23    12    17 ar  
    24    13    14 ar  
    25    14    15 ar  
    26    14    28 1   
    27    15    16 ar  
    28    15    29 1   
    29    16    17 ar  
    30    16    30 1   
    31    18    19 2   
    32    18    20 1   
    33    19    31 1   
    34    20    32 1   
    35    20    33 1   
@<TRIPOS>SUBSTRUCTURE
     1 UI2         1 TEMP              0 ****  ****    0 ROOT
