@<TRIPOS>MOLECULE
UI3
   40    42     1     0     0
SMALL
bcc


@<TRIPOS>ATOM
      1 C1          -1.7900     3.3870     0.2380 ca         1 UI3      -0.194000
      2 C2          -3.0050     2.7690     0.3250 ca         1 UI3      -0.079000
      3 C3          -3.1140     1.3650     0.2630 ca         1 UI3      -0.062000
      4 C4          -1.9340     0.5920     0.1060 ca         1 UI3       0.004000
      5 C5          -0.6740     1.2420    -0.0050 ca         1 UI3      -0.041000
      6 C6          -0.6110     2.6230     0.0710 ca         1 UI3       0.150100
      7 C9          -4.3630     0.7140     0.3640 ca         1 UI3      -0.114000
      8 C10         -4.4540    -0.6480     0.3130 ca         1 UI3      -0.121000
      9 C11         -3.2840    -1.4320     0.1720 ca         1 UI3      -0.137900
     10 C12         -2.0610    -0.8160     0.0810 ca         1 UI3      -0.073000
     11 C16         -3.3490    -2.9210     0.1370 ce         1 UI3       0.657800
     12 N17         -2.3320    -3.5910     0.5210 n2         1 UI3      -0.821100
     13 N18         -4.5450    -3.4370    -0.2740 nv         1 UI3      -0.968800
     14 O19          0.6050     3.1810    -0.0340 os         1 UI3      -0.317900
     15 C20          0.7290     4.5910    -0.0250 c3         1 UI3       0.126700
     16 C24          0.5520     0.4670    -0.2280 cc         1 UI3      -0.192300
     17 C25          1.6560     0.3780     0.5780 cd         1 UI3      -0.064300
     18 N26          2.5160    -0.4620    -0.0560 na         1 UI3      -0.049100
     19 N27          2.0500    -0.9060    -1.2290 nd         1 UI3      -0.502800
     20 C28          0.8660    -0.3560    -1.3410 cc         1 UI3       0.351200
     21 S34          4.0890    -0.9070     0.4300 s6         1 UI3       1.263000
     22 O35          4.2430    -2.3080     0.1160 o          1 UI3      -0.577300
     23 O36          4.1980    -0.4350     1.7940 o          1 UI3      -0.577300
     24 C37          5.1010     0.0640    -0.6460 c3         1 UI3      -0.249300
     25 H1          -1.7450     4.4650     0.2920 ha         1 UI3       0.137000
     26 H2          -3.9000     3.3650     0.4480 ha         1 UI3       0.133000
     27 H9          -5.2560     1.3140     0.4940 ha         1 UI3       0.131000
     28 H10         -5.4230    -1.1200     0.4130 ha         1 UI3       0.137000
     29 H12         -1.1790    -1.4360    -0.0070 ha         1 UI3       0.165000
     30 H17         -2.4870    -4.5900     0.4110 hn         1 UI3       0.372400
     31 H181        -4.5860    -4.4280    -0.4500 hn         1 UI3       0.405800
     32 H182        -5.1170    -2.8930    -0.8990 hn         1 UI3       0.405800
     33 H201         1.7860     4.8030    -0.1570 h1         1 UI3       0.042033
     34 H202         0.1740     5.0560    -0.8440 h1         1 UI3       0.042033
     35 H203         0.4000     5.0280     0.9210 h1         1 UI3       0.042033
     36 H25          1.8780     0.8250     1.5320 h4         1 UI3       0.200000
     37 H28          0.2550    -0.5490    -2.2100 h4         1 UI3       0.042100
     38 H371         4.9010     1.1170    -0.4660 h1         1 UI3       0.112033
     39 H372         6.1380    -0.1700    -0.4100 h1         1 UI3       0.112033
     40 H373         4.8810    -0.2020    -1.6770 h1         1 UI3       0.112033
@<TRIPOS>BOND
     1     1     2 ar  
     2     1     6 ar  
     3     1    25 1   
     4     2     3 ar  
     5     2    26 1   
     6     3     4 ar  
     7     3     7 ar  
     8     4     5 ar  
     9     4    10 ar  
    10     5     6 ar  
    11     5    16 1   
    12     6    14 1   
    13     7     8 ar  
    14     7    27 1   
    15     8     9 ar  
    16     8    28 1   
    17     9    10 ar  
    18     9    11 1   
    19    10    29 1   
    20    11    12 2   
    21    11    13 1   
    22    12    30 1   
    23    13    31 1   
    24    13    32 1   
    25    14    15 1   
    26    15    33 1   
    27    15    34 1   
    28    15    35 1   
    29    16    17 2   
    30    16    20 1   
    31    17    18 1   
    32    17    36 1   
    33    18    19 1   
    34    18    21 1   
    35    19    20 2   
    36    20    37 1   
    37    21    22 2   
    38    21    23 2   
    39    21    24 1   
    40    24    38 1   
    41    24    39 1   
    42    24    40 1   
@<TRIPOS>SUBSTRUCTURE
     1 UI3         1 TEMP              0 ****  ****    0 ROOT
