@<TRIPOS>MOLECULE
UI3
   40    42     1     0     0
SMALL
No Charge or Current Charge


@<TRIPOS>ATOM
      1 C1          -1.7190     3.3240     0.3190 ca         1 UI3      -0.176000
      2 C2          -2.9800     2.7240     0.3390 ca         1 UI3      -0.061000
      3 C3          -3.1010     1.3340     0.2150 ca         1 UI3      -0.062000
      4 C4          -1.9520     0.5200     0.0620 ca         1 UI3       0.004000
      5 C5          -0.6570     1.1270    -0.0030 ca         1 UI3      -0.041000
      6 C6          -0.5570     2.5420     0.1450 ca         1 UI3       0.150100
      7 C9          -4.3840     0.7610     0.2690 ca         1 UI3      -0.096000
      8 C10         -4.5480    -0.6270     0.1950 ca         1 UI3      -0.103000
      9 C11         -3.4250    -1.4740     0.0750 ca         1 UI3      -0.137900
     10 C12         -2.1380    -0.8860     0.0400 ca         1 UI3      -0.055000
     11 C16         -3.5730    -2.9690     0.0680 ce         1 UI3       0.657800
     12 N17         -2.6180    -3.7670     0.3150 n2         1 UI3      -0.821100
     13 N18         -4.7560    -3.4920    -0.3230 nv         1 UI3      -1.079200
     14 O19          0.6850     3.1490     0.0420 os         1 UI3      -0.341100
     15 C20          0.8770     4.5710     0.1500 c3         1 UI3       0.149900
     16 C24          0.5720     0.3450    -0.2770 cc         1 UI3      -0.127000
     17 C25          1.7330     0.5620     0.4090 cd         1 UI3      -0.097000
     18 N26          2.6320    -0.4280    -0.0320 na         1 UI3       0.001600
     19 N27          2.0150    -1.2900    -0.9630 nd         1 UI3      -0.502800
     20 C28          0.7950    -0.8040    -1.0550 cc         1 UI3       0.285900
     21 S34          4.3030    -0.6190     0.4610 s6         1 UI3       1.232200
     22 O35          4.6710    -2.0380     0.3200 o          1 UI3      -0.506500
     23 O36          4.4870     0.1020     1.7300 o          1 UI3      -0.506500
     24 C37          5.2020     0.2820    -0.8050 c3         1 UI3      -0.360100
     25 H1          -1.6680     4.4040     0.4190 ha         1 UI3       0.119000
     26 H2          -3.8660     3.3440     0.4630 ha         1 UI3       0.115000
     27 H9          -5.2610     1.3940     0.3850 ha         1 UI3       0.113000
     28 H10         -5.5530    -1.0380     0.2650 ha         1 UI3       0.119000
     29 H12         -1.2860    -1.5520     0.0260 ha         1 UI3       0.147000
     30 H17         -3.0160    -4.7020     0.4540 hn         1 UI3       0.372400
     31 H181        -4.7130    -4.4160    -0.7350 hn         1 UI3       0.461000
     32 H182        -5.3830    -2.8440    -0.7850 hn         1 UI3       0.461000
     33 H201         1.9400     4.8190     0.0440 h1         1 UI3       0.042033
     34 H202         0.3260     5.1000    -0.6380 h1         1 UI3       0.042033
     35 H203         0.5380     4.9370     1.1270 h1         1 UI3       0.042033
     36 H25          1.9920     1.2990     1.1620 h4         1 UI3       0.182000
     37 H28          0.0940    -1.2980    -1.7140 h4         1 UI3       0.042100
     38 H371         4.8570     1.3210    -0.7770 h1         1 UI3       0.112033
     39 H372         6.2680     0.2080    -0.5650 h1         1 UI3       0.112033
     40 H373         4.9740    -0.1890    -1.7660 h1         1 UI3       0.112033
@<TRIPOS>BOND
     1     1     2 ar  
     2     1     6 ar  
     3     1    25 1   
     4     2     3 ar  
     5     2    26 1   
     6     3     4 ar  
     7     3     7 ar  
     8     4     5 ar  
     9     4    10 ar  
    10     5     6 ar  
    11     5    16 1   
    12     6    14 1   
    13     7     8 ar  
    14     7    27 1   
    15     8     9 ar  
    16     8    28 1   
    17     9    10 ar  
    18     9    11 1   
    19    10    29 1   
    20    11    12 2   
    21    11    13 1   
    22    12    30 1   
    23    13    31 1   
    24    13    32 1   
    25    14    15 1   
    26    15    33 1   
    27    15    34 1   
    28    15    35 1   
    29    16    17 2   
    30    16    20 1   
    31    17    18 1   
    32    17    36 1   
    33    18    19 1   
    34    18    21 1   
    35    19    20 2   
    36    20    37 1   
    37    21    22 2   
    38    21    23 2   
    39    21    24 1   
    40    24    38 1   
    41    24    39 1   
    42    24    40 1   
@<TRIPOS>SUBSTRUCTURE
     1 UI3         1 TEMP              0 ****  ****    0 ROOT
