@<TRIPOS>MOLECULE
UI4
   22    23     1     0     0
SMALL
No Charge or Current Charge


@<TRIPOS>ATOM
      1 C10        -10.1640    61.2150   -40.0350 ca         1 UI4      -0.071000
      2 C02        -15.4470    57.2810   -40.6670 ca         1 UI4       0.151100
      3 C03        -15.0290    57.3450   -39.3310 ca         1 UI4      -0.186500
      4 C04        -13.9760    58.2010   -38.9630 ca         1 UI4      -0.041500
      5 C05        -13.3110    59.0110   -39.9260 cp         1 UI4      -0.189500
      6 C06        -13.7620    58.9280   -41.2720 ca         1 UI4      -0.041500
      7 C07        -14.8160    58.0710   -41.6340 ca         1 UI4      -0.186500
      8 C08        -12.1820    59.9260   -39.5320 cp         1 UI4       0.420500
      9 C09        -11.1950    60.3610   -40.4560 ca         1 UI4      -0.158000
     10 C11        -10.1460    61.6110   -38.6900 ca         1 UI4      -0.169000
     11 C12        -11.1460    61.1380   -37.8270 ca         1 UI4       0.345900
     12 N13        -12.1370    60.3130   -38.2350 nb         1 UI4      -0.681000
     13 H1          -9.3990    61.5570   -40.7300 ha         1 UI4       0.118000
     14 H2         -15.5130    56.7370   -38.5710 ha         1 UI4       0.121500
     15 H3         -13.6670    58.2270   -37.9200 ha         1 UI4       0.123500
     16 H4         -13.3060    59.5410   -42.0460 ha         1 UI4       0.123500
     17 H5         -15.1450    58.0260   -42.6690 ha         1 UI4       0.121500
     18 H6         -11.2190    60.0270   -41.4880 ha         1 UI4       0.123000
     19 H7          -9.3690    62.2710   -38.3130 ha         1 UI4       0.124000
     20 H8         -11.1550    61.4250   -36.7760 h4         1 UI4       0.017100
     21 H9         -16.7850    55.9850   -40.2300 ho         1 UI4       0.467000
     22 O01        -16.4670    56.4550   -41.0300 oh         1 UI4      -0.532100
@<TRIPOS>BOND
     1     1     9 ar  
     2     1    10 ar  
     3     1    13 1   
     4     2     3 ar  
     5     2     7 ar  
     6     2    22 1   
     7     3     4 ar  
     8     3    14 1   
     9     4     5 ar  
    10     4    15 1   
    11     5     6 ar  
    12     5     8 1   
    13     6     7 ar  
    14     6    16 1   
    15     7    17 1   
    16     8     9 ar  
    17     8    12 ar  
    18     9    18 1   
    19    10    11 ar  
    20    10    19 1   
    21    11    12 ar  
    22    11    20 1   
    23    21    22 1   
@<TRIPOS>SUBSTRUCTURE
     1 UI4         1 TEMP              0 ****  ****    0 ROOT
