@<TRIPOS>MOLECULE
UI4
   22    23     1     0     0
SMALL
abcg2


@<TRIPOS>ATOM
      1 C10        -10.2410    61.2150   -40.0340 ca         1 UI4      -0.071000
      2 C02        -15.4050    57.2930   -40.6390 ca         1 UI4       0.151100
      3 C03        -15.0050    57.4100   -39.3090 ca         1 UI4      -0.186500
      4 C04        -13.9750    58.2680   -38.9660 ca         1 UI4      -0.041500
      5 C05        -13.3070    59.0260   -39.9290 cp         1 UI4      -0.189500
      6 C06        -13.7280    58.9030   -41.2550 ca         1 UI4      -0.041500
      7 C07        -14.7590    58.0530   -41.6120 ca         1 UI4      -0.186500
      8 C08        -12.1980    59.9200   -39.5390 cp         1 UI4       0.420500
      9 C09        -11.2560    60.3790   -40.4630 ca         1 UI4      -0.158000
     10 C11        -10.1760    61.5680   -38.6940 ca         1 UI4      -0.169000
     11 C12        -11.1450    61.0540   -37.8470 ca         1 UI4       0.345900
     12 N13        -12.1250    60.2590   -38.2510 nb         1 UI4      -0.681000
     13 H1          -9.5030    61.5780   -40.7380 ha         1 UI4       0.118000
     14 H2         -15.4960    56.8270   -38.5380 ha         1 UI4       0.121500
     15 H3         -13.6770    58.3440   -37.9290 ha         1 UI4       0.123500
     16 H4         -13.2630    59.4900   -42.0370 ha         1 UI4       0.123500
     17 H5         -15.0720    57.9800   -42.6460 ha         1 UI4       0.121500
     18 H6         -11.3000    60.0780   -41.5000 ha         1 UI4       0.123000
     19 H7          -9.3980    62.2160   -38.3140 ha         1 UI4       0.124000
     20 H8         -11.1290    61.2970   -36.7890 h4         1 UI4       0.017100
     21 H9         -16.7830    56.0210   -40.2760 ho         1 UI4       0.467000
     22 O01        -16.3950    56.4740   -41.0340 oh         1 UI4      -0.532100
@<TRIPOS>BOND
     1     1     9 ar  
     2     1    10 ar  
     3     1    13 1   
     4     2     3 ar  
     5     2     7 ar  
     6     2    22 1   
     7     3     4 ar  
     8     3    14 1   
     9     4     5 ar  
    10     4    15 1   
    11     5     6 ar  
    12     5     8 1   
    13     6     7 ar  
    14     6    16 1   
    15     7    17 1   
    16     8     9 ar  
    17     8    12 ar  
    18     9    18 1   
    19    10    11 ar  
    20    10    19 1   
    21    11    12 ar  
    22    11    20 1   
    23    21    22 1   
@<TRIPOS>SUBSTRUCTURE
     1 UI4         1 TEMP              0 ****  ****    0 ROOT
