@<TRIPOS>MOLECULE
UI5
   23    23     1     0     0
SMALL
No Charge or Current Charge


@<TRIPOS>ATOM
      1 C6         -13.5490   -27.0820    23.4970 c3         1 UI5       0.167600
      2 C5         -12.6860   -28.1150    22.7190 c5         1 UI5      -0.094700
      3 C1         -12.0210   -27.6290    21.3840 c5         1 UI5       0.172500
      4 C2         -11.6460   -28.9590    20.6380 c5         1 UI5      -0.072400
      5 C3         -12.1990   -30.0990    21.5430 c5         1 UI5       0.175300
      6 O3         -14.7640   -26.7720    22.7990 oh         1 UI5      -0.665000
      7 C4         -13.4070   -29.4030    22.2410 c5         1 UI5       0.137300
      8 O2         -13.9400   -30.1860    23.3180 oh         1 UI5      -0.675000
      9 N1         -12.9060   -26.7920    20.5670 n8         1 UI5      -1.004200
     10 O1         -12.5840   -31.2620    20.8070 oh         1 UI5      -0.656000
     11 H12        -13.7860   -27.4990    24.4850 h1         1 UI5       0.023200
     12 H13        -12.9570   -26.1710    23.6590 h1         1 UI5       0.023200
     13 H11        -11.8900   -28.3800    23.4270 hc         1 UI5       0.058700
     14 H4         -11.1250   -27.0280    21.5930 h1         1 UI5       0.021700
     15 H6         -12.0890   -28.9980    19.6360 hc         1 UI5       0.061700
     16 H5         -10.5630   -29.0540    20.5030 hc         1 UI5       0.061700
     17 H7         -11.4450   -30.3750    22.2940 h1         1 UI5       0.039700
     18 H14        -15.2860   -26.1770    23.3830 ho         1 UI5       0.440000
     19 H9         -14.1960   -29.1670    21.5100 h1         1 UI5       0.081700
     20 H10        -14.6950   -29.6760    23.6870 ho         1 UI5       0.447000
     21 H1         -13.7750   -26.6720    21.1110 hn         1 UI5       0.404000
     22 H2         -12.5270   -25.8390    20.5360 hn         1 UI5       0.404000
     23 H8         -13.1490   -31.7850    21.4190 ho         1 UI5       0.447000
@<TRIPOS>BOND
     1     1     2 1   
     2     1     6 1   
     3     1    11 1   
     4     1    12 1   
     5     2     3 1   
     6     2     7 1   
     7     2    13 1   
     8     3     4 1   
     9     3     9 1   
    10     3    14 1   
    11     4     5 1   
    12     4    15 1   
    13     4    16 1   
    14     5     7 1   
    15     5    10 1   
    16     5    17 1   
    17     6    18 1   
    18     7     8 1   
    19     7    19 1   
    20     8    20 1   
    21     9    21 1   
    22     9    22 1   
    23    10    23 1   
@<TRIPOS>SUBSTRUCTURE
     1 UI5         1 TEMP              0 ****  ****    0 ROOT
