@<TRIPOS>MOLECULE
UI5
   23    23     1     0     0
SMALL
abcg2


@<TRIPOS>ATOM
      1 C6         -13.5380   -27.0780    23.5640 c3         1 UI5       0.167600
      2 C5         -12.7000   -28.0530    22.7610 c5         1 UI5      -0.094700
      3 C1         -12.0810   -27.5780    21.4330 c5         1 UI5       0.172500
      4 C2         -11.5240   -28.8890    20.8330 c5         1 UI5      -0.072400
      5 C3         -12.3130   -30.0410    21.4860 c5         1 UI5       0.175300
      6 O3         -14.7680   -26.7740    22.8920 oh         1 UI5      -0.665000
      7 C4         -13.3710   -29.3700    22.3620 c5         1 UI5       0.137300
      8 O2         -13.7130   -30.2250    23.4540 oh         1 UI5      -0.675000
      9 N1         -13.0960   -27.0200    20.5260 n8         1 UI5      -1.004200
     10 O1         -12.8520   -30.9080    20.4850 oh         1 UI5      -0.656000
     11 H12        -13.7540   -27.5220    24.5430 h1         1 UI5       0.023200
     12 H13        -12.9640   -26.1600    23.7350 h1         1 UI5       0.023200
     13 H11        -11.8580   -28.3150    23.4140 hc         1 UI5       0.058700
     14 H4         -11.2730   -26.8650    21.6330 h1         1 UI5       0.021700
     15 H6         -11.6570   -28.9060    19.7520 hc         1 UI5       0.061700
     16 H5         -10.4580   -28.9910    21.0400 hc         1 UI5       0.061700
     17 H7         -11.6600   -30.6210    22.1470 h1         1 UI5       0.039700
     18 H14        -15.2720   -26.1730    23.4530 ho         1 UI5       0.440000
     19 H9         -14.2580   -29.1690    21.7580 h1         1 UI5       0.081700
     20 H10        -14.5450   -29.9180    23.8350 ho         1 UI5       0.447000
     21 H1         -13.6200   -26.2880    20.9920 hn         1 UI5       0.404000
     22 H2         -12.6350   -26.6050    19.7230 hn         1 UI5       0.404000
     23 H8         -13.2760   -31.6510    20.9340 ho         1 UI5       0.447000
@<TRIPOS>BOND
     1     1     2 1   
     2     1     6 1   
     3     1    11 1   
     4     1    12 1   
     5     2     3 1   
     6     2     7 1   
     7     2    13 1   
     8     3     4 1   
     9     3     9 1   
    10     3    14 1   
    11     4     5 1   
    12     4    15 1   
    13     4    16 1   
    14     5     7 1   
    15     5    10 1   
    16     5    17 1   
    17     6    18 1   
    18     7     8 1   
    19     7    19 1   
    20     8    20 1   
    21     9    21 1   
    22     9    22 1   
    23    10    23 1   
@<TRIPOS>SUBSTRUCTURE
     1 UI5         1 TEMP              0 ****  ****    0 ROOT
