@<TRIPOS>MOLECULE
UI7
   23    23     1     0     0
SMALL
abcg2


@<TRIPOS>ATOM
      1 C10        -33.6900    13.0590   -13.0490 c3         1 UI7       0.208900
      2 C01        -31.3360    15.8520   -19.2780 c3         1 UI7      -0.182100
      3 C02        -32.3410    14.8100   -18.8510 c          1 UI7       0.609100
      4 C05        -33.2280    13.7630   -16.7670 ca         1 UI7      -0.023000
      5 C06        -34.0990    12.8290   -17.3280 ca         1 UI7      -0.131000
      6 C07        -34.8350    12.0020   -16.4890 ca         1 UI7      -0.085000
      7 C08        -34.7230    12.0860   -15.1120 ca         1 UI7      -0.137000
      8 C09        -33.8480    13.0100   -14.5450 ca         1 UI7      -0.059300
      9 C12        -33.1120    13.8400   -15.3750 ca         1 UI7      -0.143000
     10 O03        -32.9800    14.1640   -19.6620 o          1 UI7      -0.583100
     11 O11        -33.2220    14.3220   -12.6490 oh         1 UI7      -0.659000
     12 H1         -34.6530    12.8150   -12.5840 h1         1 UI7       0.027200
     13 H2         -32.9940    12.2630   -12.7510 h1         1 UI7       0.027200
     14 H3         -31.7390    16.4260   -20.1100 hc         1 UI7       0.063033
     15 H4         -31.0530    16.5390   -18.4830 hc         1 UI7       0.063033
     16 H5         -30.4320    15.3530   -19.6310 hc         1 UI7       0.063033
     17 H6         -34.2140    12.7430   -18.3950 ha         1 UI7       0.148000
     18 H7         -35.5140    11.2840   -16.9290 ha         1 UI7       0.114000
     19 H8         -35.3150    11.4380   -14.4760 ha         1 UI7       0.111000
     20 H9         -32.4320    14.5650   -14.9430 ha         1 UI7       0.122000
     21 H10        -31.8550    15.2550   -16.9470 hn         1 UI7       0.150000
     22 H11        -32.9830    14.2740   -11.7190 ho         1 UI7       0.445000
     23 N04        -32.4380    14.6510   -17.5050 ns         1 UI7      -0.148000
@<TRIPOS>BOND
     1     1     8 1   
     2     1    11 1   
     3     1    12 1   
     4     1    13 1   
     5     2     3 1   
     6     2    14 1   
     7     2    15 1   
     8     2    16 1   
     9     3    10 2   
    10     3    23 1   
    11     4     5 ar  
    12     4     9 ar  
    13     4    23 1   
    14     5     6 ar  
    15     5    17 1   
    16     6     7 ar  
    17     6    18 1   
    18     7     8 ar  
    19     7    19 1   
    20     8     9 ar  
    21     9    20 1   
    22    11    22 1   
    23    21    23 1   
@<TRIPOS>SUBSTRUCTURE
     1 UI7         1 TEMP              0 ****  ****    0 ROOT
