@<TRIPOS>MOLECULE
UI7
   23    23     1     0     0
SMALL
No Charge or Current Charge


@<TRIPOS>ATOM
      1 C10        -33.4360    12.9910   -13.0270 c3         1 UI7       0.208900
      2 C01        -31.2490    15.7940   -19.4120 c3         1 UI7      -0.182100
      3 C02        -32.3400    14.8200   -18.9740 c          1 UI7       0.609100
      4 C05        -33.2050    13.7730   -16.7880 ca         1 UI7      -0.023000
      5 C06        -34.2600    12.9800   -17.2920 ca         1 UI7      -0.131000
      6 C07        -35.0410    12.2020   -16.4200 ca         1 UI7      -0.085000
      7 C08        -34.7770    12.2050   -15.0410 ca         1 UI7      -0.137000
      8 C09        -33.7300    12.9890   -14.5230 ca         1 UI7      -0.059300
      9 C12        -32.9510    13.7670   -15.4030 ca         1 UI7      -0.143000
     10 O03        -33.1000    14.3080   -19.7870 o          1 UI7      -0.583100
     11 O11        -34.1430    14.0560   -12.3780 oh         1 UI7      -0.659000
     12 H1         -33.7300    12.0230   -12.5980 h1         1 UI7       0.027200
     13 H2         -32.3550    13.1030   -12.8710 h1         1 UI7       0.027200
     14 H3         -31.2420    15.9620   -20.4950 hc         1 UI7       0.063033
     15 H4         -31.3650    16.7320   -18.8580 hc         1 UI7       0.063033
     16 H5         -30.2800    15.4300   -19.0520 hc         1 UI7       0.063033
     17 H6         -34.4940    12.9520   -18.3520 ha         1 UI7       0.148000
     18 H7         -35.8530    11.5940   -16.8150 ha         1 UI7       0.114000
     19 H8         -35.3880    11.6010   -14.3750 ha         1 UI7       0.111000
     20 H9         -32.1430    14.3750   -15.0010 ha         1 UI7       0.122000
     21 H10        -31.6670    15.0960   -17.0870 hn         1 UI7       0.150000
     22 H11        -33.9160    14.0030   -11.4230 ho         1 UI7       0.445000
     23 N04        -32.3720    14.5880   -17.6050 ns         1 UI7      -0.148000
@<TRIPOS>BOND
     1     1     8 1   
     2     1    11 1   
     3     1    12 1   
     4     1    13 1   
     5     2     3 1   
     6     2    14 1   
     7     2    15 1   
     8     2    16 1   
     9     3    10 2   
    10     3    23 1   
    11     4     5 ar  
    12     4     9 ar  
    13     4    23 1   
    14     5     6 ar  
    15     5    17 1   
    16     6     7 ar  
    17     6    18 1   
    18     7     8 ar  
    19     7    19 1   
    20     8     9 ar  
    21     9    20 1   
    22    11    22 1   
    23    21    23 1   
@<TRIPOS>SUBSTRUCTURE
     1 UI7         1 TEMP              0 ****  ****    0 ROOT
