@<TRIPOS>MOLECULE
UI9
   48    51     1     0     0
SMALL
abcg2


@<TRIPOS>ATOM
      1 N1         213.9070   215.2510   214.2610 ns         1 UI9      -0.497900
      2 N3         221.2680   213.6060   208.1940 nb         1 UI9      -0.629000
      3 C4         218.9010   213.4890   211.0830 cp         1 UI9      -0.097000
      4 C5         219.5710   213.0990   209.8300 cp         1 UI9      -0.070000
      5 C6         219.1830   211.9910   209.0720 ca         1 UI9      -0.063000
      6 C7         219.8380   211.7120   207.8860 ca         1 UI9      -0.130000
      7 C8         220.6340   213.8630   209.3320 ca         1 UI9       0.346900
      8 C10        221.5860   212.2950   206.2160 cc         1 UI9       0.446000
      9 C13        213.8490   214.7700   215.6300 c3         1 UI9       0.089000
     10 C15        214.0740   215.0700   211.8160 c3         1 UI9       0.035600
     11 C17        217.6150   214.2740   213.4840 ca         1 UI9       0.029000
     12 CL1        214.4140   216.8420   211.7840 cl         1 UI9      -0.265000
     13 C1         216.8410   215.8700   215.2070 c          1 UI9       0.700100
     14 O1         217.4450   216.8740   214.9080 o          1 UI9      -0.507000
     15 C2         217.8740   212.9250   213.2280 ca         1 UI9      -0.199000
     16 N2         216.9250   214.6180   214.6530 n          1 UI9      -0.259400
     17 O2         215.9410   215.8480   216.2200 os         1 UI9      -0.419100
     18 C3         218.4980   212.5730   212.0490 ca         1 UI9       0.207000
     19 O3         213.6890   213.2350   213.2300 o          1 UI9      -0.610100
     20 N4         221.2800   211.3040   205.3790 nd         1 UI9      -0.523800
     21 N5         222.1600   211.4660   204.4100 na         1 UI9       0.235600
     22 N6         222.9710   212.4870   204.6060 nd         1 UI9      -0.182800
     23 N7         222.6250   213.0270   205.7470 nc         1 UI9      -0.335000
     24 C9         220.8750   212.5480   207.4740 ca         1 UI9       0.318000
     25 C11        222.2240   210.6120   203.2360 c3         1 UI9       0.079900
     26 C12        215.2350   214.5770   216.2360 c5         1 UI9       0.129300
     27 C14        213.8680   214.4510   213.1880 c          1 UI9       0.595100
     28 C16        216.1550   213.6530   215.4370 c5         1 UI9       0.066000
     29 C18        218.0050   215.2320   212.5410 ca         1 UI9      -0.152000
     30 C19        218.6350   214.8340   211.3760 ca         1 UI9      -0.051000
     31 F1         218.7480   211.2540   211.8580 f          1 UI9      -0.177000
     32 H17        214.0540   216.2380   214.1090 hn         1 UI9       0.341500
     33 H2         218.3640   211.3640   209.3950 ha         1 UI9       0.130000
     34 H3         219.5460   210.8660   207.2800 ha         1 UI9       0.140000
     35 H4         220.9890   214.7190   209.8950 h4         1 UI9       0.027100
     36 H10        213.2920   215.4900   216.2290 h1         1 UI9       0.079700
     37 H9         213.3210   213.8170   215.6500 h1         1 UI9       0.079700
     38 H11        213.1840   214.9010   211.2150 h1         1 UI9       0.099700
     39 H12        214.9260   214.5780   211.3530 h1         1 UI9       0.099700
     40 H1         217.6070   212.1480   213.9290 ha         1 UI9       0.138000
     41 H7         223.0500   210.9580   202.6240 h1         1 UI9       0.072367
     42 H5         222.3890   209.5840   203.5530 h1         1 UI9       0.072367
     43 H6         221.2860   210.6870   202.6880 h1         1 UI9       0.072367
     44 H8         215.1420   214.2710   217.2750 h1         1 UI9       0.096700
     45 H14        215.5970   212.9820   214.7890 h1         1 UI9       0.081700
     46 H13        216.8100   213.0690   216.0860 h1         1 UI9       0.081700
     47 H15        217.7980   216.2750   212.7100 ha         1 UI9       0.153000
     48 H16        218.9040   215.5870   210.6480 ha         1 UI9       0.128000
@<TRIPOS>BOND
     1     1     9 1   
     2     1    27 1   
     3     1    32 1   
     4     2     7 ar  
     5     2    24 ar  
     6     3     4 1   
     7     3    18 ar  
     8     3    30 ar  
     9     4     5 ar  
    10     4     7 ar  
    11     5     6 ar  
    12     5    33 1   
    13     6    24 ar  
    14     6    34 1   
    15     7    35 1   
    16     8    20 2   
    17     8    23 1   
    18     8    24 1   
    19     9    26 1   
    20     9    36 1   
    21     9    37 1   
    22    10    12 1   
    23    10    27 1   
    24    10    38 1   
    25    10    39 1   
    26    11    15 ar  
    27    11    16 1   
    28    11    29 ar  
    29    13    14 2   
    30    13    16 1   
    31    13    17 1   
    32    15    18 ar  
    33    15    40 1   
    34    16    28 1   
    35    17    26 1   
    36    18    31 1   
    37    19    27 2   
    38    20    21 1   
    39    21    22 1   
    40    21    25 1   
    41    22    23 2   
    42    25    41 1   
    43    25    42 1   
    44    25    43 1   
    45    26    28 1   
    46    26    44 1   
    47    28    45 1   
    48    28    46 1   
    49    29    30 ar  
    50    29    47 1   
    51    30    48 1   
@<TRIPOS>SUBSTRUCTURE
     1 UI9         1 TEMP              0 ****  ****    0 ROOT
