@<TRIPOS>MOLECULE
UI9
   48    51     1     0     0
SMALL
No Charge or Current Charge


@<TRIPOS>ATOM
      1 N1         213.6230   215.4810   214.7910 ns         1 UI9      -0.497900
      2 N3         221.2770   213.6680   207.9030 nb         1 UI9      -0.629000
      3 C4         218.8870   213.4050   210.8550 cp         1 UI9      -0.097000
      4 C5         219.6310   213.0470   209.6050 cp         1 UI9      -0.070000
      5 C6         219.4110   211.8250   208.9280 ca         1 UI9      -0.063000
      6 C7         220.1320   211.5470   207.7550 ca         1 UI9      -0.130000
      7 C8         220.5790   213.9310   209.0320 ca         1 UI9       0.346900
      8 C10        221.8300   212.1810   206.0080 cc         1 UI9       0.446000
      9 C13        213.9150   214.7750   216.0520 c3         1 UI9       0.089000
     10 C15        213.0730   215.8310   212.4200 c3         1 UI9       0.035600
     11 C17        217.4210   214.1250   213.2110 ca         1 UI9       0.029000
     12 Cl1        214.4910   216.9360   212.0870 cl         1 UI9      -0.265000
     13 C1         216.8830   215.7650   215.0740 c          1 UI9       0.700100
     14 O1         217.4970   216.7430   214.6750 o          1 UI9      -0.507000
     15 C2         217.9750   212.8370   213.0670 ca         1 UI9      -0.199000
     16 N2         216.8320   214.5000   214.4740 n          1 UI9      -0.259400
     17 O2         216.1580   215.7390   216.2300 os         1 UI9      -0.419100
     18 C3         218.6740   212.4750   211.9050 ca         1 UI9       0.207000
     19 O3         213.2260   213.6570   213.4840 o          1 UI9      -0.610100
     20 N4         221.6970   211.0670   205.3130 nd         1 UI9      -0.523800
     21 N5         222.5940   211.3140   204.3200 na         1 UI9       0.235600
     22 N6         223.2270   212.5220   204.4240 nd         1 UI9      -0.182800
     23 N7         222.7400   213.0710   205.5000 nc         1 UI9      -0.335000
     24 C9         221.0670   212.4830   207.2550 ca         1 UI9       0.318000
     25 C11        222.8580   210.3720   203.2250 c3         1 UI9       0.079900
     26 C12        215.4190   214.4960   216.3270 c5         1 UI9       0.129300
     27 C14        213.3100   214.8730   213.5940 c          1 UI9       0.595100
     28 C16        216.1000   213.5360   215.3080 c5         1 UI9       0.066000
     29 C18        217.6940   215.0750   212.2060 ca         1 UI9      -0.152000
     30 C19        218.3930   214.7180   211.0410 ca         1 UI9      -0.051000
     31 F1         219.1820   211.2240   211.8300 f          1 UI9      -0.177000
     32 H17        213.6830   216.4940   214.7810 hn         1 UI9       0.341500
     33 H2         218.6830   211.1080   209.2990 ha         1 UI9       0.130000
     34 H3         219.9630   210.6080   207.2350 ha         1 UI9       0.140000
     35 H4         220.7930   214.8870   209.5070 h4         1 UI9       0.027100
     36 H10        213.5250   215.3810   216.8790 h1         1 UI9       0.079700
     37 H9         213.3690   213.8220   216.0710 h1         1 UI9       0.079700
     38 H11        212.2010   216.4550   212.6480 h1         1 UI9       0.099700
     39 H12        212.8750   215.2430   211.5170 h1         1 UI9       0.099700
     40 H1         217.8700   212.0970   213.8550 ha         1 UI9       0.138000
     41 H7         223.9360   210.3210   203.0370 h1         1 UI9       0.072367
     42 H5         222.4900   209.3750   203.4970 h1         1 UI9       0.072367
     43 H6         222.3450   210.7150   202.3190 h1         1 UI9       0.072367
     44 H8         215.5080   214.1030   217.3490 h1         1 UI9       0.096700
     45 H14        215.3810   212.9430   214.7300 h1         1 UI9       0.081700
     46 H13        216.7910   212.8500   215.8150 h1         1 UI9       0.081700
     47 H15        217.3360   216.0970   212.2960 ha         1 UI9       0.153000
     48 H16        218.5470   215.4690   210.2690 ha         1 UI9       0.128000
@<TRIPOS>BOND
     1     1     9 1   
     2     1    27 1   
     3     1    32 1   
     4     2     7 ar  
     5     2    24 ar  
     6     3     4 1   
     7     3    18 ar  
     8     3    30 ar  
     9     4     5 ar  
    10     4     7 ar  
    11     5     6 ar  
    12     5    33 1   
    13     6    24 ar  
    14     6    34 1   
    15     7    35 1   
    16     8    20 2   
    17     8    23 1   
    18     8    24 1   
    19     9    26 1   
    20     9    36 1   
    21     9    37 1   
    22    10    12 1   
    23    10    27 1   
    24    10    38 1   
    25    10    39 1   
    26    11    15 ar  
    27    11    16 1   
    28    11    29 ar  
    29    13    14 2   
    30    13    16 1   
    31    13    17 1   
    32    15    18 ar  
    33    15    40 1   
    34    16    28 1   
    35    17    26 1   
    36    18    31 1   
    37    19    27 2   
    38    20    21 1   
    39    21    22 1   
    40    21    25 1   
    41    22    23 2   
    42    25    41 1   
    43    25    42 1   
    44    25    43 1   
    45    26    28 1   
    46    26    44 1   
    47    28    45 1   
    48    28    46 1   
    49    29    30 ar  
    50    29    47 1   
    51    30    48 1   
@<TRIPOS>SUBSTRUCTURE
     1 UI9         1 TEMP              0 ****  ****    0 ROOT
