@<TRIPOS>MOLECULE
UIA
   17    16     1     0     0
SMALL
abcg2


@<TRIPOS>ATOM
      1 CA         -27.1800    33.3770   -18.8960 c3         1 UIA       0.113800
      2 C          -26.4390    33.6770   -15.7900 c          1 UIA       0.728000
      3 O          -27.5170    34.3050   -15.7070 o          1 UIA      -0.748500
      4 CB         -27.3130    30.9420   -18.2150 c3         1 UIA      -0.084100
      5 C2         -27.3590    32.3880   -17.7380 c3         1 UIA       0.125700
      6 N1         -25.8810    33.2280   -19.5390 n8         1 UIA      -1.006200
      7 N2         -26.4000    32.5800   -16.6730 ns         1 UIA      -0.565900
      8 H1         -27.3620    34.3880   -18.5090 h1         1 UIA       0.025700
      9 H2         -27.9580    33.1830   -19.6400 h1         1 UIA       0.025700
     10 H4         -27.5290    30.2550   -17.3970 hc         1 UIA       0.018700
     11 H5         -28.0490    30.7690   -19.0020 hc         1 UIA       0.018700
     12 H6         -26.3320    30.6850   -18.6200 hc         1 UIA       0.018700
     13 H7         -28.3510    32.5760   -17.3220 h1         1 UIA       0.062700
     14 H8         -25.8050    33.8900   -20.3000 hn         1 UIA       0.381000
     15 H9         -25.1570    33.4930   -18.8810 hn         1 UIA       0.381000
     16 H11        -25.4760    32.2210   -16.8570 hn         1 UIA       0.252500
     17 OXT        -25.3900    33.8900   -15.1430 o          1 UIA      -0.748500
@<TRIPOS>BOND
     1     1     5 1   
     2     1     6 1   
     3     1     8 1   
     4     1     9 1   
     5     2     3 1   
     6     2     7 1   
     7     2    17 1   
     8     4     5 1   
     9     4    10 1   
    10     4    11 1   
    11     4    12 1   
    12     5     7 1   
    13     5    13 1   
    14     6    14 1   
    15     6    15 1   
    16     7    16 1   
@<TRIPOS>SUBSTRUCTURE
     1 UIA         1 TEMP              0 ****  ****    0 ROOT
