@<TRIPOS>MOLECULE
UIA
   17    16     1     0     0
SMALL
No Charge or Current Charge


@<TRIPOS>ATOM
      1 CA         -27.2090    33.3720   -18.9710 c3         1 UIA       0.113800
      2 C          -26.4210    33.6520   -15.7760 c          1 UIA       0.728000
      3 O          -27.3970    34.3790   -15.7470 o          1 UIA      -0.748500
      4 CB         -27.3050    30.9090   -18.1730 c3         1 UIA      -0.084100
      5 C2         -27.3480    32.3970   -17.7590 c3         1 UIA       0.125700
      6 N1         -25.8890    33.3140   -19.6500 n8         1 UIA      -1.006200
      7 N2         -26.3470    32.6650   -16.7140 ns         1 UIA      -0.565900
      8 H1         -27.3630    34.4010   -18.6180 h1         1 UIA       0.025700
      9 H2         -27.9920    33.1520   -19.7100 h1         1 UIA       0.025700
     10 H4         -27.4960    30.2640   -17.3060 hc         1 UIA       0.018700
     11 H5         -28.0720    30.6970   -18.9270 hc         1 UIA       0.018700
     12 H6         -26.3270    30.6400   -18.5900 hc         1 UIA       0.018700
     13 H7         -28.3410    32.5700   -17.3220 h1         1 UIA       0.062700
     14 H8         -25.8210    34.0890   -20.3200 hn         1 UIA       0.381000
     15 H9         -25.1630    33.5250   -18.9550 hn         1 UIA       0.381000
     16 H11        -25.5180    32.0890   -16.6870 hn         1 UIA       0.252500
     17 OXT        -25.4880    33.7310   -15.0030 o          1 UIA      -0.748500
@<TRIPOS>BOND
     1     1     5 1   
     2     1     6 1   
     3     1     8 1   
     4     1     9 1   
     5     2     3 1   
     6     2     7 1   
     7     2    17 1   
     8     4     5 1   
     9     4    10 1   
    10     4    11 1   
    11     4    12 1   
    12     5     7 1   
    13     5    13 1   
    14     6    14 1   
    15     6    15 1   
    16     7    16 1   
@<TRIPOS>SUBSTRUCTURE
     1 UIA         1 TEMP              0 ****  ****    0 ROOT
