@<TRIPOS>MOLECULE
UIB
   65    69     1     0     0
SMALL
bcc


@<TRIPOS>ATOM
      1 N1          -0.8480     0.2190    -6.2380 nv         1 UIB      -0.963800
      2 C3           0.3750     0.7010    -5.8630 ce         1 UIB       0.660800
      3 N2           1.1280     1.4600    -6.5630 n2         1 UIB      -0.827100
      4 C4           0.8100     0.3290    -4.4900 ca         1 UIB      -0.141900
      5 C5           2.1670     0.3170    -4.1790 ca         1 UIB      -0.098000
      6 C6           2.5950    -0.0420    -2.9110 ca         1 UIB      -0.115000
      7 C7           1.6850    -0.3700    -1.9120 ca         1 UIB      -0.061300
      8 C10          2.1830    -0.7550    -0.5410 c5         1 UIB       0.250800
      9 C22          2.3630     0.4000     0.4520 c5         1 UIB      -0.147700
     10 C16          2.2990    -0.2700     1.8290 c5         1 UIB      -0.080700
     11 C15          1.6470    -1.6670     1.5870 c5         1 UIB       0.213200
     12 C13          2.6960    -2.7380     1.9210 c3         1 UIB      -0.099100
     13 C14          0.3900    -1.9370     2.4070 c3         1 UIB      -0.099100
     14 N11          1.2830    -1.6400     0.1600 n3         1 UIB      -0.736600
     15 C12          1.1190    -2.9310    -0.4680 c3         1 UIB       0.164100
     16 C17          1.5490     0.7420     2.7090 c5         1 UIB       0.120700
     17 N19          0.7810     1.5130     1.7440 n          1 UIB      -0.479800
     18 C23         -0.4370     2.2200     2.0810 c3         1 UIB       0.158300
     19 C24         -1.5990     1.2730     2.2210 ca         1 UIB      -0.112300
     20 C32         -2.0890     0.9420     3.4750 ca         1 UIB      -0.125000
     21 C31         -3.1190     0.0070     3.6470 ca         1 UIB      -0.122000
     22 C30         -3.6210    -0.5720     2.5100 ca         1 UIB       0.055100
     23 C26         -3.1410    -0.2420     1.2500 ca         1 UIB       0.048100
     24 C25         -2.1380     0.6730     1.0700 ca         1 UIB      -0.089000
     25 O27         -3.8330    -0.9350     0.3120 os         1 UIB      -0.319900
     26 C28         -4.6270    -1.8760     1.0220 c5         1 UIB       0.327200
     27 O29         -4.6220    -1.4780     2.3860 os         1 UIB      -0.321900
     28 C20          1.2270     1.4040     0.4760 c          1 UIB       0.720500
     29 O21          0.7970     2.0300    -0.4780 o          1 UIB      -0.615500
     30 C18          2.5430     1.5850     3.5130 c3         1 UIB      -0.091400
     31 C41          1.9390     2.6750     4.3880 c3         1 UIB      -0.087100
     32 C8           0.3300    -0.3450    -2.2200 ca         1 UIB      -0.115000
     33 C9          -0.1040    -0.0080    -3.4910 ca         1 UIB      -0.098000
     34 HN11        -1.1050     0.3190    -7.2080 hn         1 UIB       0.402800
     35 HN12        -1.1630    -0.6450    -5.8280 hn         1 UIB       0.402800
     36 HN2          0.7370     1.6120    -7.4890 hn         1 UIB       0.367400
     37 H5           2.8890     0.5690    -4.9440 ha         1 UIB       0.143000
     38 H6           3.6580    -0.0740    -2.6980 ha         1 UIB       0.136500
     39 H10          3.1820    -1.2070    -0.6830 h1         1 UIB       0.029700
     40 H22          3.3010     0.9260     0.2640 hc         1 UIB       0.086700
     41 H16          3.2980    -0.4230     2.2390 hc         1 UIB       0.064700
     42 H131         2.3020    -3.7480     1.8010 hc         1 UIB       0.040700
     43 H132         3.5870    -2.6490     1.2930 hc         1 UIB       0.040700
     44 H133         3.0190    -2.6330     2.9580 hc         1 UIB       0.040700
     45 H141        -0.0270    -2.9130     2.1520 hc         1 UIB       0.040700
     46 H142         0.6050    -1.9530     3.4770 hc         1 UIB       0.040700
     47 H143        -0.3810    -1.1900     2.2160 hc         1 UIB       0.040700
     48 H121         0.6450    -2.8210    -1.4440 h1         1 UIB       0.032367
     49 H122         2.0650    -3.4680    -0.6250 h1         1 UIB       0.032367
     50 H123         0.4680    -3.5650     0.1320 h1         1 UIB       0.032367
     51 H17          0.8650     0.2560     3.4100 h1         1 UIB       0.067700
     52 H231        -0.2980     2.7710     3.0090 h1         1 UIB       0.067700
     53 H232        -0.6240     2.9550     1.2980 h1         1 UIB       0.067700
     54 H32         -1.6610     1.4120     4.3520 ha         1 UIB       0.133000
     55 H31         -3.4950    -0.2420     4.6300 ha         1 UIB       0.151000
     56 H25         -1.7720     0.9280     0.0830 ha         1 UIB       0.169000
     57 H281        -4.1940    -2.8770     0.9240 h2         1 UIB       0.063200
     58 H282        -5.6470    -1.8630     0.6370 h2         1 UIB       0.063200
     59 H181         3.2760     2.0290     2.8310 hc         1 UIB       0.044200
     60 H182         3.0980     0.8890     4.1470 hc         1 UIB       0.044200
     61 H411         2.6930     3.0840     5.0610 hc         1 UIB       0.035033
     62 H412         1.5500     3.5070     3.8020 hc         1 UIB       0.035033
     63 H413         1.1240     2.2880     5.0050 hc         1 UIB       0.035033
     64 H8          -0.3910    -0.5960    -1.4520 ha         1 UIB       0.136500
     65 H9          -1.1680     0.0120    -3.6900 ha         1 UIB       0.143000
@<TRIPOS>BOND
     1     1     2 1   
     2     1    34 1   
     3     1    35 1   
     4     2     3 2   
     5     2     4 1   
     6     3    36 1   
     7     4     5 ar  
     8     4    33 ar  
     9     5     6 ar  
    10     5    37 1   
    11     6     7 ar  
    12     6    38 1   
    13     7     8 1   
    14     7    32 ar  
    15     8     9 1   
    16     8    14 1   
    17     8    39 1   
    18     9    10 1   
    19     9    28 1   
    20     9    40 1   
    21    10    11 1   
    22    10    16 1   
    23    10    41 1   
    24    11    12 1   
    25    11    13 1   
    26    11    14 1   
    27    12    42 1   
    28    12    43 1   
    29    12    44 1   
    30    13    45 1   
    31    13    46 1   
    32    13    47 1   
    33    14    15 1   
    34    15    48 1   
    35    15    49 1   
    36    15    50 1   
    37    16    17 1   
    38    16    30 1   
    39    16    51 1   
    40    17    18 1   
    41    17    28 1   
    42    18    19 1   
    43    18    52 1   
    44    18    53 1   
    45    19    20 ar  
    46    19    24 ar  
    47    20    21 ar  
    48    20    54 1   
    49    21    22 ar  
    50    21    55 1   
    51    22    23 ar  
    52    22    27 1   
    53    23    24 ar  
    54    23    25 1   
    55    24    56 1   
    56    25    26 1   
    57    26    27 1   
    58    26    57 1   
    59    26    58 1   
    60    28    29 2   
    61    30    31 1   
    62    30    59 1   
    63    30    60 1   
    64    31    61 1   
    65    31    62 1   
    66    31    63 1   
    67    32    33 ar  
    68    32    64 1   
    69    33    65 1   
@<TRIPOS>SUBSTRUCTURE
     1 UIB         1 TEMP              0 ****  ****    0 ROOT
