@<TRIPOS>MOLECULE
UIB
   65    69     1     0     0
SMALL
No Charge or Current Charge


@<TRIPOS>ATOM
      1 N1          -2.9840    -1.4610    -3.7230 nv         1 UIB      -1.074200
      2 C3          -1.8370    -0.7980    -3.9820 ce         1 UIB       0.660800
      3 N2          -1.6870    -0.2930    -5.1370 n2         1 UIB      -0.827100
      4 C4          -0.7310    -0.8920    -2.9740 ca         1 UIB      -0.141900
      5 C5           0.6160    -0.7370    -3.3720 ca         1 UIB      -0.080000
      6 C6           1.6580    -0.8190    -2.4340 ca         1 UIB      -0.097000
      7 C7           1.3890    -1.0330    -1.0690 ca         1 UIB      -0.061300
      8 C10          2.5610    -1.1390    -0.0800 c5         1 UIB       0.250800
      9 C22          2.9690     0.2780     0.4620 c5         1 UIB      -0.147700
     10 C16          2.9900     0.1050     2.0090 c5         1 UIB      -0.080700
     11 C15          3.1910    -1.4450     2.1950 c5         1 UIB       0.213200
     12 C13          4.6790    -1.8510     1.9500 c3         1 UIB      -0.099100
     13 C14          2.8310    -1.9680     3.6140 c3         1 UIB      -0.099100
     14 N11          2.2550    -1.9300     1.1420 n3         1 UIB      -0.736600
     15 C12          2.1410    -3.3930     0.9360 c3         1 UIB       0.164100
     16 C17          1.5380     0.5500     2.4500 c5         1 UIB       0.120700
     17 N19          1.1780     1.4930     1.3610 n          1 UIB      -0.412800
     18 C23          0.0770     2.4770     1.4030 c3         1 UIB       0.158300
     19 C24         -1.1970     1.9860     0.7260 ca         1 UIB      -0.112300
     20 C32         -2.0360     1.0430     1.3720 ca         1 UIB      -0.107000
     21 C31         -3.2320     0.6090     0.7630 ca         1 UIB      -0.104000
     22 C30         -3.5560     1.1290    -0.4950 ca         1 UIB       0.055100
     23 C26         -2.7450     2.0260    -1.1300 ca         1 UIB       0.048100
     24 C25         -1.5540     2.4810    -0.5510 ca         1 UIB      -0.071000
     25 O27         -3.2430     2.4140    -2.3320 os         1 UIB      -0.343100
     26 C28         -4.4570     1.5910    -2.4590 c5         1 UIB       0.373600
     27 O29         -4.6690     0.8350    -1.2140 os         1 UIB      -0.345100
     28 C20          1.9300     1.3630     0.1900 c          1 UIB       0.578000
     29 O21          1.8790     2.1380    -0.7570 o          1 UIB      -0.540000
     30 C18          1.4940     1.1440     3.8890 c3         1 UIB      -0.091400
     31 C41          0.1520     0.9850     4.6360 c3         1 UIB      -0.087100
     32 C8           0.0430    -1.1500    -0.6610 ca         1 UIB      -0.097000
     33 C9          -1.0020    -1.0810    -1.5990 ca         1 UIB      -0.080000
     34 HN11        -3.4780    -1.8130    -4.5340 hn         1 UIB       0.458000
     35 HN12        -2.9440    -2.0990    -2.9380 hn         1 UIB       0.458000
     36 HN2         -2.6130    -0.2170    -5.5710 hn         1 UIB       0.367400
     37 H5           0.8620    -0.5700    -4.4180 ha         1 UIB       0.125000
     38 H6           2.6870    -0.7140    -2.7720 ha         1 UIB       0.118500
     39 H10          3.4200    -1.5870    -0.6000 h1         1 UIB       0.029700
     40 H22          3.9260     0.5810     0.0270 hc         1 UIB       0.086700
     41 H16          3.7700     0.7120     2.4820 hc         1 UIB       0.064700
     42 H131         4.8140    -2.9370     2.0000 hc         1 UIB       0.040700
     43 H132         5.0600    -1.5200     0.9770 hc         1 UIB       0.040700
     44 H133         5.3330    -1.4080     2.7110 hc         1 UIB       0.040700
     45 H141         3.0520    -3.0370     3.7160 hc         1 UIB       0.040700
     46 H142         3.4070    -1.4450     4.3860 hc         1 UIB       0.040700
     47 H143         1.7680    -1.8400     3.8430 hc         1 UIB       0.040700
     48 H121         1.3800    -3.6170     0.1780 h1         1 UIB       0.032367
     49 H122         3.0940    -3.8190     0.5960 h1         1 UIB       0.032367
     50 H123         1.8460    -3.8990     1.8640 h1         1 UIB       0.032367
     51 H17          0.8380    -0.2950     2.4180 h1         1 UIB       0.067700
     52 H231        -0.1470     2.7480     2.4390 h1         1 UIB       0.067700
     53 H232         0.4110     3.4040     0.9180 h1         1 UIB       0.067700
     54 H32         -1.7630     0.6480     2.3470 ha         1 UIB       0.115000
     55 H31         -3.8860    -0.1070     1.2550 ha         1 UIB       0.133000
     56 H25         -0.9280     3.2000    -1.0740 ha         1 UIB       0.151000
     57 H281        -4.3270     0.8860    -3.2880 h2         1 UIB       0.063200
     58 H282        -5.3220     2.2370    -2.6490 h2         1 UIB       0.063200
     59 H181         1.7770     2.2040     3.8690 hc         1 UIB       0.044200
     60 H182         2.2550     0.6550     4.5060 hc         1 UIB       0.044200
     61 H411         0.2540     1.3290     5.6720 hc         1 UIB       0.035033
     62 H412        -0.6490     1.5670     4.1710 hc         1 UIB       0.035033
     63 H413        -0.1550    -0.0680     4.6590 hc         1 UIB       0.035033
     64 H8          -0.1970    -1.2970     0.3880 ha         1 UIB       0.118500
     65 H9          -2.0250    -1.1690    -1.2450 ha         1 UIB       0.125000
@<TRIPOS>BOND
     1     1     2 1   
     2     1    34 1   
     3     1    35 1   
     4     2     3 2   
     5     2     4 1   
     6     3    36 1   
     7     4     5 ar  
     8     4    33 ar  
     9     5     6 ar  
    10     5    37 1   
    11     6     7 ar  
    12     6    38 1   
    13     7     8 1   
    14     7    32 ar  
    15     8     9 1   
    16     8    14 1   
    17     8    39 1   
    18     9    10 1   
    19     9    28 1   
    20     9    40 1   
    21    10    11 1   
    22    10    16 1   
    23    10    41 1   
    24    11    12 1   
    25    11    13 1   
    26    11    14 1   
    27    12    42 1   
    28    12    43 1   
    29    12    44 1   
    30    13    45 1   
    31    13    46 1   
    32    13    47 1   
    33    14    15 1   
    34    15    48 1   
    35    15    49 1   
    36    15    50 1   
    37    16    17 1   
    38    16    30 1   
    39    16    51 1   
    40    17    18 1   
    41    17    28 1   
    42    18    19 1   
    43    18    52 1   
    44    18    53 1   
    45    19    20 ar  
    46    19    24 ar  
    47    20    21 ar  
    48    20    54 1   
    49    21    22 ar  
    50    21    55 1   
    51    22    23 ar  
    52    22    27 1   
    53    23    24 ar  
    54    23    25 1   
    55    24    56 1   
    56    25    26 1   
    57    26    27 1   
    58    26    57 1   
    59    26    58 1   
    60    28    29 2   
    61    30    31 1   
    62    30    59 1   
    63    30    60 1   
    64    31    61 1   
    65    31    62 1   
    66    31    63 1   
    67    32    33 ar  
    68    32    64 1   
    69    33    65 1   
@<TRIPOS>SUBSTRUCTURE
     1 UIB         1 TEMP              0 ****  ****    0 ROOT
