@<TRIPOS>MOLECULE
UID
   27    27     1     0     0
SMALL
abcg2


@<TRIPOS>ATOM
      1 C10         -7.8110    57.2610    21.3630 ca         1 UID      -0.197500
      2 C11         -9.1080    57.0530    20.8700 ca         1 UID       0.329000
      3 C13         -9.4950    55.7330    20.5720 ca         1 UID      -0.197500
      4 C14         -8.6290    54.6810    20.7620 ca         1 UID      -0.034000
      5 C01         -3.5350    50.2960    23.5780 c3         1 UID      -0.121100
      6 C02         -3.3480    51.0210    22.2620 c3         1 UID       0.169600
      7 C04         -5.5460    51.4690    21.4690 c          1 UID       0.599300
      8 C06         -6.5560    52.5020    21.2270 ce         1 UID      -0.295200
      9 C08         -7.3320    54.8800    21.2580 ca         1 UID      -0.140800
     10 C09         -6.9550    56.1960    21.5500 ca         1 UID      -0.034000
     11 N12         -9.9850    58.0870    20.7270 nv         1 UID      -1.089000
     12 O03         -4.4130    51.9380    21.9860 os         1 UID      -0.454100
     13 O05         -5.7290    50.2990    21.2120 o          1 UID      -0.496000
     14 H1          -7.4830    58.2670    21.5980 ha         1 UID       0.114000
     15 H2         -10.4920    55.5450    20.1900 ha         1 UID       0.114000
     16 H3          -8.9730    53.6830    20.5190 ha         1 UID       0.113000
     17 H4          -2.6510    49.6910    23.7800 hc         1 UID       0.047367
     18 H5          -3.6540    50.9980    24.4030 hc         1 UID       0.047367
     19 H6          -4.3970    49.6310    23.5600 hc         1 UID       0.047367
     20 H7          -3.2320    50.3160    21.4380 h1         1 UID       0.056200
     21 H8          -2.4540    51.6420    22.2960 h1         1 UID       0.056200
     22 H9          -7.4850    52.1260    20.8160 ha         1 UID       0.199000
     23 H10         -5.4250    54.1340    21.8820 ha         1 UID       0.184000
     24 H11         -5.9590    56.3880    21.9320 ha         1 UID       0.113000
     25 H12         -9.6040    59.0170    20.6810 hn         1 UID       0.463500
     26 H13        -10.7790    57.9440    20.1250 hn         1 UID       0.463500
     27 C07         -6.3780    53.8110    21.4760 cf         1 UID      -0.056200
@<TRIPOS>BOND
     1     1     2 ar  
     2     1    10 ar  
     3     1    14 1   
     4     2     3 ar  
     5     2    11 1   
     6     3     4 ar  
     7     3    15 1   
     8     4     9 ar  
     9     4    16 1   
    10     5     6 1   
    11     5    17 1   
    12     5    18 1   
    13     5    19 1   
    14     6    12 1   
    15     6    20 1   
    16     6    21 1   
    17     7     8 1   
    18     7    12 1   
    19     7    13 2   
    20     8    22 1   
    21     8    27 2   
    22     9    10 ar  
    23     9    27 1   
    24    10    24 1   
    25    11    25 1   
    26    11    26 1   
    27    23    27 1   
@<TRIPOS>SUBSTRUCTURE
     1 UID         1 TEMP              0 ****  ****    0 ROOT
