@<TRIPOS>MOLECULE
UIH
   38    41     1     0     0
SMALL
No Charge or Current Charge


@<TRIPOS>ATOM
      1 N1          -5.3190    -0.4800     0.1340 nb         1 UIH      -0.361000
      2 C2          -5.1020    -1.8020     0.1480 ca         1 UIH       0.428900
      3 N3          -3.9250    -2.4480     0.1440 nb         1 UIH      -0.307000
      4 C4          -2.8390    -1.6580     0.1620 ca         1 UIH       0.200500
      5 C5          -2.9410    -0.2830     0.1960 ca         1 UIH      -0.297800
      6 C6          -4.2230     0.2860     0.1540 ca         1 UIH       0.476900
      7 NAA         -6.2070    -2.5780     0.1290 nv         1 UIH      -1.047900
      8 NAB         -4.4670     1.6080     0.0460 nv         1 UIH      -1.078900
      9 CAD         -0.5100     4.4030    -0.1990 ca         1 UIH      -0.111000
     10 CAE         -1.4560     4.0050     0.7580 ca         1 UIH      -0.113500
     11 CAF          0.0920     3.4420    -1.0260 ca         1 UIH      -0.113500
     12 CAG          2.8640    -1.6220    -0.8760 ca         1 UIH      -0.083000
     13 CAH          2.8850     0.1830     0.7560 ca         1 UIH      -0.083000
     14 CAI         -1.8060     2.6490     0.8810 ca         1 UIH      -0.107500
     15 CAJ         -0.2580     2.0860    -0.9000 ca         1 UIH      -0.107500
     16 CAK          1.4600    -1.6620    -0.8120 ca         1 UIH      -0.101500
     17 CAL          1.4810     0.1410     0.8180 ca         1 UIH      -0.101500
     18 NAO         -1.5010    -1.9910     0.0980 na         1 UIH      -0.317400
     19 CAP          3.5740    -0.6970    -0.0940 ca         1 UIH      -0.018900
     20 CAS          0.7560    -0.7720     0.0240 ca         1 UIH      -0.014800
     21 CAT         -1.2230     1.6750     0.0450 ca         1 UIH      -0.029800
     22 CAU         -0.7060    -0.8370     0.0880 cc         1 UIH      -0.031300
     23 CAV         -1.5760     0.2450     0.1910 cd         1 UIH      -0.014400
     24 HNAA        -7.0920    -2.1400    -0.1110 hn         1 UIH       0.483000
     25 HNAB        -6.1010    -3.5610    -0.1070 hn         1 UIH       0.483000
     26 HNAC        -5.3910     1.8880    -0.2700 hn         1 UIH       0.502500
     27 HNAD        -3.6910     2.2040    -0.2250 hn         1 UIH       0.502500
     28 HAD         -0.2370     5.4520    -0.2940 ha         1 UIH       0.114000
     29 HAE         -1.9110     4.7460     1.4130 ha         1 UIH       0.114500
     30 HAF          0.8290     3.7460    -1.7660 ha         1 UIH       0.114500
     31 HAG          3.3980    -2.3070    -1.5300 ha         1 UIH       0.130500
     32 HAH          3.4350     0.8930     1.3680 ha         1 UIH       0.130500
     33 HAI         -2.5060     2.3500     1.6590 ha         1 UIH       0.122000
     34 HAJ          0.2070     1.3560    -1.5580 ha         1 UIH       0.122000
     35 HAK          0.9170    -2.3790    -1.4240 ha         1 UIH       0.123000
     36 HAL          0.9580     0.8160     1.4900 ha         1 UIH       0.123000
     37 HNAO        -1.1540    -2.9410     0.0620 hn         1 UIH       0.362000
     38 Br           5.4840    -0.6410    -0.1790 br         1 UIH      -0.097100
@<TRIPOS>BOND
     1     1     2 ar  
     2     1     6 ar  
     3     2     3 ar  
     4     2     7 1   
     5     3     4 ar  
     6     4     5 ar  
     7     4    18 1   
     8     5     6 ar  
     9     5    23 1   
    10     6     8 1   
    11     7    24 1   
    12     7    25 1   
    13     8    26 1   
    14     8    27 1   
    15     9    10 ar  
    16     9    11 ar  
    17     9    28 1   
    18    10    14 ar  
    19    10    29 1   
    20    11    15 ar  
    21    11    30 1   
    22    12    16 ar  
    23    12    19 ar  
    24    12    31 1   
    25    13    17 ar  
    26    13    19 ar  
    27    13    32 1   
    28    14    21 ar  
    29    14    33 1   
    30    15    21 ar  
    31    15    34 1   
    32    16    20 ar  
    33    16    35 1   
    34    17    20 ar  
    35    17    36 1   
    36    18    22 1   
    37    18    37 1   
    38    19    38 1   
    39    20    22 1   
    40    21    23 1   
    41    22    23 2   
@<TRIPOS>SUBSTRUCTURE
     1 UIH         1 TEMP              0 ****  ****    0 ROOT
