@<TRIPOS>MOLECULE
UIH
   38    41     1     0     0
SMALL
bcc


@<TRIPOS>ATOM
      1 N1          -5.2480    -0.5740     0.0130 nb         1 UIH      -0.887000
      2 C2          -4.9820    -1.8870     0.0630 ca         1 UIH       0.954900
      3 N3          -3.7840    -2.4630     0.0670 nb         1 UIH      -0.833000
      4 C4          -2.7890    -1.5790     0.0500 ca         1 UIH       0.528800
      5 C5          -2.9080    -0.1860     0.0420 ca         1 UIH      -0.428400
      6 C6          -4.2380     0.2910    -0.0100 ca         1 UIH       0.805200
      7 NAA         -6.0620    -2.7050     0.1490 nv         1 UIH      -0.937500
      8 NAB         -4.5390     1.5930    -0.0860 nv         1 UIH      -0.968500
      9 CAD         -0.5300     4.4950    -0.1110 ca         1 UIH      -0.129000
     10 CAE         -1.2850     4.0010     0.9450 ca         1 UIH      -0.131500
     11 CAF         -0.1200     3.6350    -1.1220 ca         1 UIH      -0.131500
     12 CAG          2.7910    -1.8670    -0.6400 ca         1 UIH      -0.101000
     13 CAH          2.8800     0.1550     0.6730 ca         1 UIH      -0.101000
     14 CAI         -1.6240     2.6560     0.9910 ca         1 UIH      -0.125500
     15 CAJ         -0.4650     2.2920    -1.0800 ca         1 UIH      -0.125500
     16 CAK          1.4060    -1.8000    -0.6310 ca         1 UIH      -0.119500
     17 CAL          1.4960     0.2030     0.6830 ca         1 UIH      -0.119500
     18 NAO         -1.4710    -1.8760     0.0300 na         1 UIH      -0.267100
     19 CAP          3.5200    -0.8820     0.0090 ca         1 UIH      -0.018900
     20 CAS          0.7340    -0.7650     0.0250 ca         1 UIH      -0.014800
     21 CAT         -1.2190     1.7840    -0.0220 ca         1 UIH      -0.029800
     22 CAU         -0.7240    -0.7120     0.0300 cc         1 UIH      -0.031300
     23 CAV         -1.5840     0.3600     0.0290 cd         1 UIH      -0.014400
     24 HNAA        -6.9530    -2.3250    -0.1200 hn         1 UIH       0.427800
     25 HNAB        -5.9230    -3.6780    -0.0660 hn         1 UIH       0.427800
     26 HNAC        -5.5010     1.8780    -0.1610 hn         1 UIH       0.447300
     27 HNAD        -3.8300     2.3000    -0.1600 hn         1 UIH       0.447300
     28 HAD         -0.2620     5.5430    -0.1460 ha         1 UIH       0.132000
     29 HAE         -1.6070     4.6620     1.7390 ha         1 UIH       0.132500
     30 HAF          0.4630     4.0130    -1.9510 ha         1 UIH       0.132500
     31 HAG          3.2830    -2.6780    -1.1580 ha         1 UIH       0.148500
     32 HAH          3.4440     0.9180     1.1920 ha         1 UIH       0.148500
     33 HAI         -2.1940     2.2750     1.8300 ha         1 UIH       0.140000
     34 HAJ         -0.1500     1.6300    -1.8770 ha         1 UIH       0.140000
     35 HAK          0.8520    -2.5650    -1.1600 ha         1 UIH       0.141000
     36 HAL          1.0100     1.0010     1.2260 ha         1 UIH       0.141000
     37 HNAO        -1.0970    -2.8090     0.1110 hn         1 UIH       0.311700
     38 BR           5.4060    -0.9570    -0.0030 br         1 UIH      -0.097100
@<TRIPOS>BOND
     1     1     2 ar  
     2     1     6 ar  
     3     2     3 ar  
     4     2     7 1   
     5     3     4 ar  
     6     4     5 ar  
     7     4    18 1   
     8     5     6 ar  
     9     5    23 1   
    10     6     8 1   
    11     7    24 1   
    12     7    25 1   
    13     8    26 1   
    14     8    27 1   
    15     9    10 ar  
    16     9    11 ar  
    17     9    28 1   
    18    10    14 ar  
    19    10    29 1   
    20    11    15 ar  
    21    11    30 1   
    22    12    16 ar  
    23    12    19 ar  
    24    12    31 1   
    25    13    17 ar  
    26    13    19 ar  
    27    13    32 1   
    28    14    21 ar  
    29    14    33 1   
    30    15    21 ar  
    31    15    34 1   
    32    16    20 ar  
    33    16    35 1   
    34    17    20 ar  
    35    17    36 1   
    36    18    22 1   
    37    18    37 1   
    38    19    38 1   
    39    20    22 1   
    40    21    23 1   
    41    22    23 2   
@<TRIPOS>SUBSTRUCTURE
     1 UIH         1 TEMP              0 ****  ****    0 ROOT
