@<TRIPOS>MOLECULE
UIJ
   64    66     1     0     0
SMALL
abcg2


@<TRIPOS>ATOM
      1 N1         -35.4740   -30.5890   -68.9330 n3         1 UIJ      -0.721600
      2 N3         -43.5290   -25.4030   -63.4320 no         1 UIJ       0.690200
      3 C4         -36.4820   -29.7070   -68.3420 c3         1 UIJ       0.177800
      4 C5         -36.9270   -30.0270   -66.9110 c3         1 UIJ      -0.116400
      5 C6         -37.9800   -29.0360   -66.4230 c3         1 UIJ      -0.076400
      6 C7         -38.4900   -29.3450   -65.0160 c3         1 UIJ      -0.073400
      7 C8         -39.5000   -28.3310   -64.4780 c3         1 UIJ      -0.092400
      8 C10        -42.8700   -26.9570   -65.2830 ca         1 UIJ       0.441000
      9 C13        -45.2670   -26.1380   -66.6060 ca         1 UIJ      -0.231500
     10 C15        -48.2790   -24.6930   -67.6830 cc         1 UIJ       0.506300
     11 C17        -44.3980   -27.0930   -67.1820 ca         1 UIJ       0.027000
     12 C20        -35.0590   -32.7090   -70.1050 c6         1 UIJ       0.171300
     13 C21        -33.6580   -32.7470   -69.5370 c6         1 UIJ       0.176300
     14 C1         -33.1800   -31.3430   -69.1920 c6         1 UIJ       0.132300
     15 C11        -43.7730   -26.0080   -64.7060 ca         1 UIJ      -0.304200
     16 C12        -44.9400   -25.6190   -65.3720 ca         1 UIJ       0.057000
     17 C14        -46.4770   -25.7060   -67.2940 cd         1 UIJ       0.639500
     18 C18        -43.2540   -27.4860   -66.5490 ca         1 UIJ      -0.236000
     19 C19        -35.9710   -31.9390   -69.1560 c6         1 UIJ       0.134800
     20 C2         -34.1660   -30.6060   -68.2730 c6         1 UIJ       0.172500
     21 C3         -33.6470   -29.2190   -67.9230 c3         1 UIJ       0.156600
     22 C9         -40.7830   -28.2880   -65.2970 c3         1 UIJ       0.221800
     23 N2         -41.7260   -27.3470   -64.7120 nu         1 UIJ      -0.940200
     24 N4         -46.8180   -26.1420   -68.4820 nc         1 UIJ      -0.385300
     25 N5         -47.3690   -24.7960   -66.7640 nd         1 UIJ      -0.728000
     26 O1         -31.9000   -31.5110   -68.5710 oh         1 UIJ      -0.737000
     27 O2         -33.5210   -28.4250   -69.1050 oh         1 UIJ      -0.656000
     28 O3         -42.5080   -25.7160   -62.7980 o          1 UIJ      -0.424000
     29 O4         -44.3350   -24.5830   -62.9870 o          1 UIJ      -0.424000
     30 O5         -48.0220   -25.4670   -68.7480 os         1 UIJ      -0.111700
     31 O6         -35.5100   -34.0560   -70.2630 oh         1 UIJ      -0.706000
     32 O7         -32.7750   -33.3570   -70.4750 oh         1 UIJ      -0.647000
     33 H2         -36.1110   -28.6820   -68.3860 h1         1 UIJ       0.056700
     34 H3         -37.3560   -29.7460   -68.9980 h1         1 UIJ       0.056700
     35 H4         -37.3370   -31.0410   -66.8690 hc         1 UIJ       0.042700
     36 H5         -36.0680   -30.0080   -66.2350 hc         1 UIJ       0.042700
     37 H6         -37.5620   -28.0230   -66.4390 hc         1 UIJ       0.039200
     38 H7         -38.8140   -29.0350   -67.1310 hc         1 UIJ       0.039200
     39 H8         -38.9400   -30.3440   -65.0050 hc         1 UIJ       0.046700
     40 H9         -37.6390   -29.3840   -64.3300 hc         1 UIJ       0.046700
     41 H10        -39.0510   -27.3330   -64.4660 hc         1 UIJ       0.055200
     42 H11        -39.7510   -28.5820   -63.4430 hc         1 UIJ       0.055200
     43 H12        -44.6430   -27.5230   -68.1440 ha         1 UIJ       0.137000
     44 H13        -35.0340   -32.2050   -71.0770 h1         1 UIJ       0.059700
     45 H14        -33.6810   -33.3370   -68.6100 h1         1 UIJ       0.052700
     46 H15        -33.0690   -30.7730   -70.1170 h1         1 UIJ       0.074700
     47 H16        -45.5820   -24.8940   -64.8990 ha         1 UIJ       0.169000
     48 H17        -50.0370   -23.9800   -68.6340 hc         1 UIJ       0.075367
     49 H18        -50.1580   -24.1670   -66.8710 hc         1 UIJ       0.075367
     50 H19        -49.2430   -22.8170   -67.5470 hc         1 UIJ       0.075367
     51 H20        -42.6190   -28.2220   -67.0180 ha         1 UIJ       0.127000
     52 H21        -36.9680   -31.8760   -69.5960 h1         1 UIJ       0.040200
     53 H22        -36.0590   -32.5200   -68.2230 h1         1 UIJ       0.040200
     54 H23        -34.2030   -31.1610   -67.3190 h1         1 UIJ       0.039700
     55 H24        -32.6760   -29.3380   -67.4340 h1         1 UIJ       0.027200
     56 H25        -34.3140   -28.7350   -67.2060 h1         1 UIJ       0.027200
     57 H26        -41.2300   -29.2870   -65.3440 h1         1 UIJ       0.050200
     58 H27        -40.5650   -27.9820   -66.3220 h1         1 UIJ       0.050200
     59 H28        -41.5250   -26.9590   -63.8020 hn         1 UIJ       0.538000
     60 H29        -31.3520   -30.7440   -68.7680 ho         1 UIJ       0.510000
     61 H30        -33.1330   -27.5780   -68.8560 ho         1 UIJ       0.440000
     62 H31        -36.3620   -34.0360   -70.7170 ho         1 UIJ       0.500000
     63 H32        -31.8800   -33.2240   -70.1330 ho         1 UIJ       0.453000
     64 C16        -49.5060   -23.8660   -67.6920 c3         1 UIJ      -0.133400
@<TRIPOS>BOND
     1     1     3 1   
     2     1    19 1   
     3     1    20 1   
     4     2    15 1   
     5     2    28 1   
     6     2    29 1   
     7     3     4 1   
     8     3    33 1   
     9     3    34 1   
    10     4     5 1   
    11     4    35 1   
    12     4    36 1   
    13     5     6 1   
    14     5    37 1   
    15     5    38 1   
    16     6     7 1   
    17     6    39 1   
    18     6    40 1   
    19     7    22 1   
    20     7    41 1   
    21     7    42 1   
    22     8    15 ar  
    23     8    18 ar  
    24     8    23 1   
    25     9    11 ar  
    26     9    16 ar  
    27     9    17 1   
    28    10    25 2   
    29    10    30 1   
    30    10    64 1   
    31    11    18 ar  
    32    11    43 1   
    33    12    13 1   
    34    12    19 1   
    35    12    31 1   
    36    12    44 1   
    37    13    14 1   
    38    13    32 1   
    39    13    45 1   
    40    14    20 1   
    41    14    26 1   
    42    14    46 1   
    43    15    16 ar  
    44    16    47 1   
    45    17    24 2   
    46    17    25 1   
    47    18    51 1   
    48    19    52 1   
    49    19    53 1   
    50    20    21 1   
    51    20    54 1   
    52    21    27 1   
    53    21    55 1   
    54    21    56 1   
    55    22    23 1   
    56    22    57 1   
    57    22    58 1   
    58    23    59 1   
    59    24    30 1   
    60    26    60 1   
    61    27    61 1   
    62    31    62 1   
    63    32    63 1   
    64    48    64 1   
    65    49    64 1   
    66    50    64 1   
@<TRIPOS>SUBSTRUCTURE
     1 UIJ         1 TEMP              0 ****  ****    0 ROOT
