@<TRIPOS>MOLECULE
UIJ
   64    66     1     0     0
SMALL
No Charge or Current Charge


@<TRIPOS>ATOM
      1 N1         -35.2260   -30.6020   -69.0470 n3         1 UIJ      -0.721600
      2 N3         -43.2900   -25.1270   -63.6620 no         1 UIJ       0.690200
      3 C4         -36.2720   -29.6630   -68.5490 c3         1 UIJ       0.177800
      4 C5         -36.8820   -30.0100   -67.1670 c3         1 UIJ      -0.116400
      5 C6         -37.9490   -28.9900   -66.7140 c3         1 UIJ      -0.076400
      6 C7         -38.5620   -29.3330   -65.3350 c3         1 UIJ      -0.073400
      7 C8         -39.5820   -28.2910   -64.8150 c3         1 UIJ      -0.092400
      8 C10        -43.0470   -26.8280   -65.5280 ca         1 UIJ       0.441000
      9 C13        -45.5930   -26.0780   -66.5310 ca         1 UIJ      -0.231500
     10 C15        -48.7460   -24.6800   -67.2290 cc         1 UIJ       0.506300
     11 C17        -44.8430   -27.0880   -67.1640 ca         1 UIJ       0.027000
     12 C20        -34.7620   -32.8610   -70.1260 c6         1 UIJ       0.171300
     13 C21        -33.4920   -33.0110   -69.2340 c6         1 UIJ       0.176300
     14 C1         -32.9030   -31.6120   -68.8940 c6         1 UIJ       0.132300
     15 C11        -43.7860   -25.8160   -64.8830 ca         1 UIJ      -0.304200
     16 C12        -45.0560   -25.4500   -65.3870 ca         1 UIJ       0.057000
     17 C14        -46.9170   -25.6840   -67.0510 cd         1 UIJ       0.639500
     18 C18        -43.5870   -27.4550   -66.6610 ca         1 UIJ      -0.236000
     19 C19        -35.7870   -31.9410   -69.4010 c6         1 UIJ       0.134800
     20 C2         -33.9820   -30.7100   -68.1900 c6         1 UIJ       0.172500
     21 C3         -33.3530   -29.3220   -67.7780 c3         1 UIJ       0.156600
     22 C9         -40.8600   -28.1770   -65.6700 c3         1 UIJ       0.221800
     23 N2         -41.8000   -27.2310   -65.0530 nu         1 UIJ      -0.940200
     24 N4         -47.4690   -26.2430   -68.1180 nc         1 UIJ      -0.385300
     25 N5         -47.6790   -24.7010   -66.4620 nd         1 UIJ      -0.728000
     26 O1         -31.7070   -31.7820   -68.0920 oh         1 UIJ      -0.737000
     27 O2         -32.8410   -28.5640   -68.8910 oh         1 UIJ      -0.656000
     28 O3         -42.0720   -24.9510   -63.5280 o          1 UIJ      -0.424000
     29 O4         -44.1300   -24.6870   -62.8680 o          1 UIJ      -0.424000
     30 O5         -48.7050   -25.5750   -68.2510 os         1 UIJ      -0.111700
     31 O6         -35.3630   -34.1460   -70.4170 oh         1 UIJ      -0.706000
     32 O7         -32.4680   -33.8010   -69.8710 oh         1 UIJ      -0.647000
     33 H2         -35.8700   -28.6420   -68.5050 h1         1 UIJ       0.056700
     34 H3         -37.0930   -29.6220   -69.2780 h1         1 UIJ       0.056700
     35 H4         -37.3390   -31.0060   -67.2050 hc         1 UIJ       0.042700
     36 H5         -36.0890   -30.0480   -66.4110 hc         1 UIJ       0.042700
     37 H6         -37.4970   -27.9910   -66.6700 hc         1 UIJ       0.039200
     38 H7         -38.7430   -28.9510   -67.4700 hc         1 UIJ       0.039200
     39 H8         -39.0450   -30.3170   -65.3850 hc         1 UIJ       0.046700
     40 H9         -37.7520   -29.4200   -64.6010 hc         1 UIJ       0.046700
     41 H10        -39.0950   -27.3100   -64.7530 hc         1 UIJ       0.055200
     42 H11        -39.8650   -28.5700   -63.7920 hc         1 UIJ       0.055200
     43 H12        -45.2250   -27.5980   -68.0470 ha         1 UIJ       0.137000
     44 H13        -34.4640   -32.3650   -71.0630 h1         1 UIJ       0.059700
     45 H14        -33.7940   -33.4900   -68.2900 h1         1 UIJ       0.052700
     46 H15        -32.6430   -31.1250   -69.8470 h1         1 UIJ       0.074700
     47 H16        -45.6280   -24.6660   -64.8900 ha         1 UIJ       0.169000
     48 H17        -50.0740   -23.1700   -67.9660 hc         1 UIJ       0.075367
     49 H18        -50.8480   -24.3930   -66.9370 hc         1 UIJ       0.075367
     50 H19        -49.8310   -23.1330   -66.2080 hc         1 UIJ       0.075367
     51 H20        -43.0370   -28.2410   -67.1690 ha         1 UIJ       0.127000
     52 H21        -36.6630   -31.8160   -70.0540 h1         1 UIJ       0.040200
     53 H22        -36.1350   -32.4570   -68.4940 h1         1 UIJ       0.040200
     54 H23        -34.2520   -31.2120   -67.2480 h1         1 UIJ       0.039700
     55 H24        -32.5470   -29.5080   -67.0570 h1         1 UIJ       0.027200
     56 H25        -34.1060   -28.7350   -67.2370 h1         1 UIJ       0.027200
     57 H26        -41.3260   -29.1690   -65.7550 h1         1 UIJ       0.050200
     58 H27        -40.5980   -27.8340   -66.6800 h1         1 UIJ       0.050200
     59 H28        -41.4250   -26.6230   -64.3200 hn         1 UIJ       0.538000
     60 H29        -31.2130   -30.9280   -68.1330 ho         1 UIJ       0.510000
     61 H30        -32.6080   -27.6730   -68.5490 ho         1 UIJ       0.440000
     62 H31        -35.9520   -34.0160   -71.1960 ho         1 UIJ       0.500000
     63 H32        -31.6480   -33.5610   -69.3810 ho         1 UIJ       0.453000
     64 C16        -49.9410   -23.7940   -67.0750 c3         1 UIJ      -0.133400
@<TRIPOS>BOND
     1     1     3 1   
     2     1    19 1   
     3     1    20 1   
     4     2    15 1   
     5     2    28 1   
     6     2    29 1   
     7     3     4 1   
     8     3    33 1   
     9     3    34 1   
    10     4     5 1   
    11     4    35 1   
    12     4    36 1   
    13     5     6 1   
    14     5    37 1   
    15     5    38 1   
    16     6     7 1   
    17     6    39 1   
    18     6    40 1   
    19     7    22 1   
    20     7    41 1   
    21     7    42 1   
    22     8    15 ar  
    23     8    18 ar  
    24     8    23 1   
    25     9    11 ar  
    26     9    16 ar  
    27     9    17 1   
    28    10    25 2   
    29    10    30 1   
    30    10    64 1   
    31    11    18 ar  
    32    11    43 1   
    33    12    13 1   
    34    12    19 1   
    35    12    31 1   
    36    12    44 1   
    37    13    14 1   
    38    13    32 1   
    39    13    45 1   
    40    14    20 1   
    41    14    26 1   
    42    14    46 1   
    43    15    16 ar  
    44    16    47 1   
    45    17    24 2   
    46    17    25 1   
    47    18    51 1   
    48    19    52 1   
    49    19    53 1   
    50    20    21 1   
    51    20    54 1   
    52    21    27 1   
    53    21    55 1   
    54    21    56 1   
    55    22    23 1   
    56    22    57 1   
    57    22    58 1   
    58    23    59 1   
    59    24    30 1   
    60    26    60 1   
    61    27    61 1   
    62    31    62 1   
    63    32    63 1   
    64    48    64 1   
    65    49    64 1   
    66    50    64 1   
@<TRIPOS>SUBSTRUCTURE
     1 UIJ         1 TEMP              0 ****  ****    0 ROOT
