@<TRIPOS>MOLECULE
UIK
   49    52     1     0     0
SMALL
abcg2


@<TRIPOS>ATOM
      1 C1          48.0130    45.6230    -5.8470 c3         1 UIK       0.225100
      2 N1          47.6040    44.6250    -6.8280 nh         1 UIK      -0.783300
      3 C2          46.3920    43.8750    -6.5550 c3         1 UIK       0.276100
      4 C3          46.5980    42.5500    -5.8450 ca         1 UIK      -0.110300
      5 C4          47.8620    42.0940    -5.4910 ca         1 UIK      -0.092000
      6 C5          48.0440    40.8590    -4.8640 ca         1 UIK      -0.071300
      7 C6          49.4220    40.3940    -4.4740 c3         1 UIK      -0.047800
      8 C7          46.9210    40.0770    -4.5960 ca         1 UIK      -0.110000
      9 C8          45.6490    40.5250    -4.9430 ca         1 UIK      -0.106000
     10 C9          45.4860    41.7560    -5.5640 ca         1 UIK      -0.119000
     11 C10         48.3280    44.4470    -7.9580 ca         1 UIK       0.432900
     12 C11         48.1110    43.4020    -8.8980 ca         1 UIK      -0.246800
     13 C12         48.9770    43.4140   -10.0150 ca         1 UIK       0.152500
     14 N2          48.6610    42.3540   -10.8070 na         1 UIK      -0.318400
     15 C13         47.6290    41.6270   -10.2280 cc         1 UIK      -0.028300
     16 C14         47.0720    40.4290   -10.8430 ca         1 UIK      -0.017800
     17 C15         47.3010    40.1140   -12.1880 ca         1 UIK      -0.107000
     18 C16         46.7480    38.9730   -12.7550 ca         1 UIK      -0.084000
     19 C17         45.9480    38.1150   -12.0050 ca         1 UIK      -0.086300
     20 C18         45.3780    36.8650   -12.6080 c3         1 UIK       0.206900
     21 O1          46.2620    35.7690   -12.3050 oh         1 UIK      -0.661000
     22 C19         45.7140    38.4290   -10.6640 ca         1 UIK      -0.084000
     23 C20         46.2680    39.5600   -10.0890 ca         1 UIK      -0.107000
     24 C21         47.2710    42.2520    -9.0540 cd         1 UIK      -0.176200
     25 N3          49.9640    44.2920   -10.2480 nb         1 UIK      -0.234000
     26 C22         50.0740    45.2000    -9.2870 ca         1 UIK       0.177900
     27 N4          49.3300    45.3230    -8.1850 nb         1 UIK      -0.302000
     28 H1          47.4890    45.4160    -4.9160 h1         1 UIK       0.045700
     29 H2          49.0850    45.5710    -5.6690 h1         1 UIK       0.045700
     30 H3          47.7670    46.6360    -6.1750 h1         1 UIK       0.045700
     31 H4          45.7460    44.5090    -5.9470 h1         1 UIK       0.062200
     32 H5          45.8520    43.7120    -7.4880 h1         1 UIK       0.062200
     33 H6          48.7300    42.7010    -5.7180 ha         1 UIK       0.122000
     34 H7          49.6580    40.6970    -3.4500 hc         1 UIK       0.044367
     35 H8          49.5000    39.3070    -4.5190 hc         1 UIK       0.044367
     36 H9          50.1820    40.8250    -5.1270 hc         1 UIK       0.044367
     37 H10         47.0420    39.1110    -4.1190 ha         1 UIK       0.113000
     38 H11         44.7840    39.9080    -4.7330 ha         1 UIK       0.113000
     39 H12         44.4960    42.0980    -5.8430 ha         1 UIK       0.109000
     40 H13         49.1700    42.1030   -11.6400 hn         1 UIK       0.362000
     41 H14         47.8960    40.7710   -12.8100 ha         1 UIK       0.114500
     42 H15         46.9350    38.7520   -13.7990 ha         1 UIK       0.115500
     43 H16         45.2840    36.9810   -13.6920 h1         1 UIK       0.028700
     44 H17         44.3860    36.6660   -12.1930 h1         1 UIK       0.028700
     45 H18         45.8630    34.9630   -12.6570 ho         1 UIK       0.439000
     46 H19         45.0940    37.7740   -10.0630 ha         1 UIK       0.115500
     47 H20         46.0830    39.7720    -9.0440 ha         1 UIK       0.114500
     48 H21         46.4950    41.9080    -8.3970 ha         1 UIK       0.208000
     49 H22         50.8610    45.9380    -9.4070 h5         1 UIK       0.044100
@<TRIPOS>BOND
     1     1     2 1   
     2     1    28 1   
     3     1    29 1   
     4     1    30 1   
     5     2     3 1   
     6     2    11 1   
     7     3     4 1   
     8     3    31 1   
     9     3    32 1   
    10     4     5 ar  
    11     4    10 ar  
    12     5     6 ar  
    13     5    33 1   
    14     6     7 1   
    15     6     8 ar  
    16     7    34 1   
    17     7    35 1   
    18     7    36 1   
    19     8     9 ar  
    20     8    37 1   
    21     9    10 ar  
    22     9    38 1   
    23    10    39 1   
    24    11    12 ar  
    25    11    27 ar  
    26    12    13 ar  
    27    12    24 1   
    28    13    14 1   
    29    13    25 ar  
    30    14    15 1   
    31    14    40 1   
    32    15    16 1   
    33    15    24 2   
    34    16    17 ar  
    35    16    23 ar  
    36    17    18 ar  
    37    17    41 1   
    38    18    19 ar  
    39    18    42 1   
    40    19    20 1   
    41    19    22 ar  
    42    20    21 1   
    43    20    43 1   
    44    20    44 1   
    45    21    45 1   
    46    22    23 ar  
    47    22    46 1   
    48    23    47 1   
    49    24    48 1   
    50    25    26 ar  
    51    26    27 ar  
    52    26    49 1   
@<TRIPOS>SUBSTRUCTURE
     1 UIK         1 TEMP              0 ****  ****    0 ROOT
