@<TRIPOS>MOLECULE
UIK
   49    52     1     0     0
SMALL
No Charge or Current Charge


@<TRIPOS>ATOM
      1 C1          48.5250    45.1220    -5.6860 c3         1 UIK       0.225100
      2 N1          47.8840    44.4480    -6.8400 nh         1 UIK      -0.783300
      3 C2          46.5200    43.9170    -6.6170 c3         1 UIK       0.276100
      4 C3          46.4420    42.6610    -5.7420 ca         1 UIK      -0.110300
      5 C4          47.5100    41.7390    -5.6740 ca         1 UIK      -0.092000
      6 C5          47.4120    40.5820    -4.8790 ca         1 UIK      -0.071300
      7 C6          48.5710    39.5980    -4.8190 c3         1 UIK      -0.047800
      8 C7          46.2390    40.3460    -4.1390 ca         1 UIK      -0.110000
      9 C8          45.1720    41.2570    -4.2000 ca         1 UIK      -0.106000
     10 C9          45.2720    42.4080    -4.9990 ca         1 UIK      -0.119000
     11 C10         48.4060    44.5940    -8.1470 ca         1 UIK       0.432900
     12 C11         48.2640    43.6330    -9.1670 ca         1 UIK      -0.246800
     13 C12         48.8110    43.8590   -10.4110 ca         1 UIK       0.152500
     14 N2          48.5330    42.7590   -11.2080 na         1 UIK      -0.318400
     15 C13         47.8220    41.7870   -10.4860 cc         1 UIK      -0.028300
     16 C14         47.3200    40.4810   -10.9360 ca         1 UIK      -0.017800
     17 C15         47.3490    40.1560   -12.3090 ca         1 UIK      -0.107000
     18 C16         46.8760    38.9130   -12.7640 ca         1 UIK      -0.084000
     19 C17         46.3670    37.9680   -11.8540 ca         1 UIK      -0.086300
     20 C18         45.8490    36.6230   -12.3470 c3         1 UIK       0.206900
     21 O1          46.9090    35.6600   -12.3690 oh         1 UIK      -0.661000
     22 C19         46.3390    38.2830   -10.4830 ca         1 UIK      -0.084000
     23 C20         46.8110    39.5270   -10.0280 ca         1 UIK      -0.107000
     24 C21         47.6460    42.3230    -9.2240 cd         1 UIK      -0.176200
     25 N3          49.4920    44.9850   -10.6810 nb         1 UIK      -0.234000
     26 C22         49.6030    45.8640    -9.6580 ca         1 UIK       0.177900
     27 N4          49.1010    45.7240    -8.4080 nb         1 UIK      -0.302000
     28 H1          48.1900    44.6780    -4.7390 h1         1 UIK       0.045700
     29 H2          49.6170    45.0160    -5.7340 h1         1 UIK       0.045700
     30 H3          48.2730    46.1910    -5.6730 h1         1 UIK       0.045700
     31 H4          45.9110    44.7030    -6.1480 h1         1 UIK       0.062200
     32 H5          46.0310    43.7050    -7.5760 h1         1 UIK       0.062200
     33 H6          48.4200    41.9190    -6.2420 ha         1 UIK       0.122000
     34 H7          49.3070    39.9080    -4.0670 hc         1 UIK       0.044367
     35 H8          48.2290    38.5890    -4.5570 hc         1 UIK       0.044367
     36 H9          49.0860    39.5300    -5.7840 hc         1 UIK       0.044367
     37 H10         46.1530    39.4570    -3.5180 ha         1 UIK       0.113000
     38 H11         44.2660    41.0700    -3.6280 ha         1 UIK       0.113000
     39 H12         44.4370    43.1040    -5.0410 ha         1 UIK       0.109000
     40 H13         48.8200    42.6740   -12.1760 hn         1 UIK       0.362000
     41 H14         47.7350    40.8680   -13.0330 ha         1 UIK       0.114500
     42 H15         46.9070    38.6830   -13.8270 ha         1 UIK       0.115500
     43 H16         45.4240    36.7450   -13.3530 h1         1 UIK       0.028700
     44 H17         45.0390    36.2830   -11.6880 h1         1 UIK       0.028700
     45 H18         46.5180    34.8180   -12.6930 ho         1 UIK       0.439000
     46 H19         45.9540    37.5610    -9.7670 ha         1 UIK       0.115500
     47 H20         46.7840    39.7310    -8.9620 ha         1 UIK       0.114500
     48 H21         47.1230    41.8370    -8.4090 ha         1 UIK       0.208000
     49 H22         50.1570    46.7790    -9.8610 h5         1 UIK       0.044100
@<TRIPOS>BOND
     1     1     2 1   
     2     1    28 1   
     3     1    29 1   
     4     1    30 1   
     5     2     3 1   
     6     2    11 1   
     7     3     4 1   
     8     3    31 1   
     9     3    32 1   
    10     4     5 ar  
    11     4    10 ar  
    12     5     6 ar  
    13     5    33 1   
    14     6     7 1   
    15     6     8 ar  
    16     7    34 1   
    17     7    35 1   
    18     7    36 1   
    19     8     9 ar  
    20     8    37 1   
    21     9    10 ar  
    22     9    38 1   
    23    10    39 1   
    24    11    12 ar  
    25    11    27 ar  
    26    12    13 ar  
    27    12    24 1   
    28    13    14 1   
    29    13    25 ar  
    30    14    15 1   
    31    14    40 1   
    32    15    16 1   
    33    15    24 2   
    34    16    17 ar  
    35    16    23 ar  
    36    17    18 ar  
    37    17    41 1   
    38    18    19 ar  
    39    18    42 1   
    40    19    20 1   
    41    19    22 ar  
    42    20    21 1   
    43    20    43 1   
    44    20    44 1   
    45    21    45 1   
    46    22    23 ar  
    47    22    46 1   
    48    23    47 1   
    49    24    48 1   
    50    25    26 ar  
    51    26    27 ar  
    52    26    49 1   
@<TRIPOS>SUBSTRUCTURE
     1 UIK         1 TEMP              0 ****  ****    0 ROOT
