@<TRIPOS>MOLECULE
UIM
   64    68     1     0     0
SMALL
No Charge or Current Charge


@<TRIPOS>ATOM
      1 C10        -26.6240    25.4140    27.6940 cc         1 UIM      -0.048400
      2 C13        -27.3340    21.9480    26.3680 ca         1 UIM      -0.106000
      3 C20        -28.8660    17.0760    26.8600 ca         1 UIM      -0.261000
      4 C21        -28.6910    18.1390    27.7570 ca         1 UIM       0.142900
      5 C24        -28.7340    24.3100    26.9730 ca         1 UIM      -0.098500
      6 C26        -24.2150    28.2100    27.5450 c3         1 UIM       0.062900
      7 C28        -26.7550    26.0310    28.9830 ca         1 UIM      -0.242800
      8 C01        -22.5210    26.0050    19.0090 c3         1 UIM      -0.088100
      9 C02        -23.2150    24.6470    19.2880 c3         1 UIM      -0.149700
     10 C03        -24.2000    24.7250    20.4760 c          1 UIM       0.610100
     11 C05        -24.1620    25.3410    22.9750 ca         1 UIM      -0.006000
     12 C06        -23.2930    25.8190    23.9690 ca         1 UIM      -0.157500
     13 C07        -23.7490    26.0420    25.2790 ca         1 UIM      -0.061000
     14 C08        -25.0910    25.7880    25.6360 ca         1 UIM      -0.078800
     15 C09        -25.5560    26.0220    27.0300 cd         1 UIM       0.003700
     16 C11        -27.3420    24.2510    27.1790 ca         1 UIM      -0.019800
     17 C12        -26.6460    23.0660    26.8730 ca         1 UIM      -0.098500
     18 C14        -28.7290    22.0090    26.1780 ca         1 UIM       0.113100
     19 C16        -29.2150    19.6370    26.0820 ca         1 UIM       0.357300
     20 C18        -29.2390    17.3940    25.5450 ca         1 UIM       0.164300
     21 C19        -29.4540    16.3180    24.4960 c3         1 UIM      -0.152400
     22 C23        -29.4240    23.1930    26.4700 ca         1 UIM      -0.106000
     23 C27        -25.8130    27.0240    29.0670 ca         1 UIM       0.150500
     24 C29        -27.5840    25.7690    30.0800 ca         1 UIM       0.428900
     25 C32        -26.5380    27.4610    31.2020 ca         1 UIM       0.179900
     26 C34        -25.9590    25.3060    24.6320 ca         1 UIM      -0.061000
     27 C35        -25.5040    25.0850    23.3200 ca         1 UIM      -0.157500
     28 C37        -22.1880    23.5030    19.4750 c3         1 UIM      -0.088100
     29 N17        -29.4140    18.6720    25.1580 nb         1 UIM      -0.196000
     30 N22        -28.8680    19.4160    27.3730 nb         1 UIM      -0.239000
     31 N25        -25.0920    27.0710    27.8770 na         1 UIM      -0.171400
     32 N30        -28.5100    24.7800    30.0990 nv         1 UIM      -1.065900
     33 N31        -27.4810    26.4890    31.2050 nb         1 UIM      -0.304000
     34 N33        -25.6910    27.7640    30.1900 nb         1 UIM      -0.235000
     35 O15        -29.4240    20.9350    25.6670 os         1 UIM      -0.345400
     36 O36        -25.3880    24.4610    20.3320 o          1 UIM      -0.572100
     37 H131       -26.7850    21.0430    26.1220 ha         1 UIM       0.128500
     38 H201       -28.7200    16.0470    27.1760 ha         1 UIM       0.137000
     39 H211       -28.4070    17.9680    28.7940 h4         1 UIM       0.024100
     40 H241       -29.2770    25.2260    27.1960 ha         1 UIM       0.125500
     41 H261       -24.5130    29.0960    28.1200 h1         1 UIM       0.057033
     42 H263       -23.1760    27.9590    27.7880 h1         1 UIM       0.057033
     43 H262       -24.2970    28.4470    26.4770 h1         1 UIM       0.057033
     44 H012       -21.9130    25.9470    18.0980 hc         1 UIM       0.041200
     45 H011       -23.2650    26.7980    18.8670 hc         1 UIM       0.041200
     46 H013       -21.8620    26.2960    19.8370 hc         1 UIM       0.041200
     47 H021       -23.8160    24.3980    18.4050 hc         1 UIM       0.085700
     48 H061       -22.2500    26.0150    23.7300 ha         1 UIM       0.131000
     49 H071       -23.0350    26.3770    26.0250 ha         1 UIM       0.121000
     50 H121       -25.5700    23.0150    27.0200 ha         1 UIM       0.125500
     51 H193       -30.3050    16.5580    23.8470 hc         1 UIM       0.059700
     52 H191       -28.5660    16.2100    23.8620 hc         1 UIM       0.059700
     53 H192       -29.6560    15.3450    24.9590 hc         1 UIM       0.059700
     54 H231       -30.4970    23.2440    26.3070 ha         1 UIM       0.128500
     55 H321       -26.4450    28.0540    32.1100 h5         1 UIM       0.043100
     56 H341       -27.0090    25.1320    24.8430 ha         1 UIM       0.121000
     57 H351       -26.2170    24.7180    22.5890 ha         1 UIM       0.131000
     58 H371       -22.7000    22.5460    19.6360 hc         1 UIM       0.041200
     59 H1         -21.5550    23.4010    18.5850 hc         1 UIM       0.041200
     60 H2         -21.5350    23.6910    20.3360 hc         1 UIM       0.041200
     61 H041       -22.6360    25.3280    21.6070 hn         1 UIM       0.151000
     62 H301       -28.8840    24.4900    30.9980 hn         1 UIM       0.495500
     63 H302       -28.4720    24.0800    29.3640 hn         1 UIM       0.495500
     64 N04        -23.6270    25.1380    21.6730 ns         1 UIM      -0.146000
@<TRIPOS>BOND
     1     1     7 1   
     2     1    15 2   
     3     1    16 1   
     4     2    17 ar  
     5     2    18 ar  
     6     2    37 1   
     7     3     4 ar  
     8     3    20 ar  
     9     3    38 1   
    10     4    30 ar  
    11     4    39 1   
    12     5    16 ar  
    13     5    22 ar  
    14     5    40 1   
    15     6    31 1   
    16     6    41 1   
    17     6    42 1   
    18     6    43 1   
    19     7    23 ar  
    20     7    24 ar  
    21     8     9 1   
    22     8    44 1   
    23     8    45 1   
    24     8    46 1   
    25     9    10 1   
    26     9    28 1   
    27     9    47 1   
    28    10    36 2   
    29    10    64 1   
    30    11    12 ar  
    31    11    27 ar  
    32    11    64 1   
    33    12    13 ar  
    34    12    48 1   
    35    13    14 ar  
    36    13    49 1   
    37    14    15 1   
    38    14    26 ar  
    39    15    31 1   
    40    16    17 ar  
    41    17    50 1   
    42    18    22 ar  
    43    18    35 1   
    44    19    29 ar  
    45    19    30 ar  
    46    19    35 1   
    47    20    21 1   
    48    20    29 ar  
    49    21    51 1   
    50    21    52 1   
    51    21    53 1   
    52    22    54 1   
    53    23    31 1   
    54    23    34 ar  
    55    24    32 1   
    56    24    33 ar  
    57    25    33 ar  
    58    25    34 ar  
    59    25    55 1   
    60    26    27 ar  
    61    26    56 1   
    62    27    57 1   
    63    28    58 1   
    64    28    59 1   
    65    28    60 1   
    66    32    62 1   
    67    32    63 1   
    68    61    64 1   
@<TRIPOS>SUBSTRUCTURE
     1 UIM         1 TEMP              0 ****  ****    0 ROOT
