@<TRIPOS>MOLECULE
UIM
   64    68     1     0     0
SMALL
abcg2


@<TRIPOS>ATOM
      1 C10        -26.5090    25.2220    27.5640 cc         1 UIM      -0.048400
      2 C13        -26.7020    21.8380    25.9200 ca         1 UIM      -0.106000
      3 C20        -29.4940    17.2240    27.2610 ca         1 UIM      -0.261000
      4 C21        -28.9830    18.3310    27.9070 ca         1 UIM       0.142900
      5 C24        -28.4230    23.7520    26.9500 ca         1 UIM      -0.098500
      6 C26        -24.5540    28.3060    27.4230 c3         1 UIM       0.062900
      7 C28        -26.7600    25.7970    28.8490 ca         1 UIM      -0.242800
      8 C01        -22.3030    26.1720    19.0920 c3         1 UIM      -0.088100
      9 C02        -23.1380    24.9200    19.3560 c3         1 UIM      -0.149700
     10 C03        -24.1130    25.1060    20.5090 c          1 UIM       0.610100
     11 C05        -24.1130    25.5930    22.9540 ca         1 UIM      -0.006000
     12 C06        -23.2500    25.8520    24.0240 ca         1 UIM      -0.157500
     13 C07        -23.7360    26.0290    25.3050 ca         1 UIM      -0.061000
     14 C08        -25.1050    25.9610    25.5670 ca         1 UIM      -0.078800
     15 C09        -25.6460    26.0810    26.9220 cd         1 UIM       0.003700
     16 C11        -27.0460    23.9760    27.0040 ca         1 UIM      -0.019800
     17 C12        -26.1960    22.9990    26.4820 ca         1 UIM      -0.098500
     18 C14        -28.0720    21.6430    25.8790 ca         1 UIM       0.113100
     19 C16        -28.8700    19.4330    25.9640 ca         1 UIM       0.357300
     20 C18        -29.6660    17.3230    25.8830 ca         1 UIM       0.164300
     21 C19        -30.2040    16.1950    25.0670 c3         1 UIM      -0.152400
     22 C23        -28.9390    22.5900    26.3960 ca         1 UIM      -0.106000
     23 C27        -26.0340    26.9910    28.9130 ca         1 UIM       0.150500
     24 C29        -27.4640    25.4620    30.0250 ca         1 UIM       0.428900
     25 C32        -26.7470    27.4340    30.9550 ca         1 UIM       0.179900
     26 C34        -25.9590    25.7200    24.4930 ca         1 UIM      -0.061000
     27 C35        -25.4860    25.5360    23.2050 ca         1 UIM      -0.157500
     28 C37        -22.2550    23.6890    19.5670 c3         1 UIM      -0.088100
     29 N17        -29.3500    18.4430    25.2370 nb         1 UIM      -0.196000
     30 N22        -28.6640    19.4510    27.2660 nb         1 UIM      -0.239000
     31 N25        -25.3620    27.1520    27.7470 na         1 UIM      -0.171400
     32 N30        -28.1710    24.3270    30.1630 nv         1 UIM      -1.065900
     33 N31        -27.4540    26.3110    31.0560 nb         1 UIM      -0.304000
     34 N33        -26.0060    27.8380    29.9440 nb         1 UIM      -0.235000
     35 O15        -28.5750    20.5270    25.2450 os         1 UIM      -0.345400
     36 O36        -25.3150    24.9850    20.3630 o          1 UIM      -0.572100
     37 H131       -26.0320    21.0900    25.5150 ha         1 UIM       0.128500
     38 H201       -29.7480    16.3230    27.8010 ha         1 UIM       0.137000
     39 H211       -28.8230    18.3250    28.9790 h4         1 UIM       0.024100
     40 H241       -29.1050    24.5040    27.3270 ha         1 UIM       0.125500
     41 H261       -24.8470    29.1300    28.0680 h1         1 UIM       0.057033
     42 H263       -23.4930    28.1090    27.5740 h1         1 UIM       0.057033
     43 H262       -24.7150    28.6000    26.3880 h1         1 UIM       0.057033
     44 H012       -21.7220    26.0390    18.1800 hc         1 UIM       0.041200
     45 H011       -22.9290    27.0560    18.9630 hc         1 UIM       0.041200
     46 H013       -21.5940    26.3760    19.8970 hc         1 UIM       0.041200
     47 H021       -23.7690    24.7410    18.4820 hc         1 UIM       0.085700
     48 H061       -22.1810    25.9000    23.8530 ha         1 UIM       0.131000
     49 H071       -23.0320    26.1970    26.1100 ha         1 UIM       0.121000
     50 H121       -25.1250    23.1470    26.5180 ha         1 UIM       0.125500
     51 H193       -31.0870    16.5150    24.5110 hc         1 UIM       0.059700
     52 H191       -29.4630    15.8700    24.3350 hc         1 UIM       0.059700
     53 H192       -30.4740    15.3430    25.6860 hc         1 UIM       0.059700
     54 H231       -30.0100    22.4350    26.3510 ha         1 UIM       0.128500
     55 H321       -26.7810    28.0880    31.8200 h5         1 UIM       0.043100
     56 H341       -27.0280    25.6770    24.6620 ha         1 UIM       0.121000
     57 H351       -26.1880    25.3520    22.4090 ha         1 UIM       0.131000
     58 H371       -22.8490    22.7940    19.7560 hc         1 UIM       0.041200
     59 H1         -21.6560    23.5080    18.6740 hc         1 UIM       0.041200
     60 H2         -21.5640    23.8190    20.4010 hc         1 UIM       0.041200
     61 H041       -22.5210    25.4770    21.6990 hn         1 UIM       0.151000
     62 H301       -28.5240    24.0950    31.0760 hn         1 UIM       0.495500
     63 H302       -28.0480    23.5640    29.5200 hn         1 UIM       0.495500
     64 N04        -23.5280    25.4050    21.7020 ns         1 UIM      -0.146000
@<TRIPOS>BOND
     1     1     7 1   
     2     1    15 2   
     3     1    16 1   
     4     2    17 ar  
     5     2    18 ar  
     6     2    37 1   
     7     3     4 ar  
     8     3    20 ar  
     9     3    38 1   
    10     4    30 ar  
    11     4    39 1   
    12     5    16 ar  
    13     5    22 ar  
    14     5    40 1   
    15     6    31 1   
    16     6    41 1   
    17     6    42 1   
    18     6    43 1   
    19     7    23 ar  
    20     7    24 ar  
    21     8     9 1   
    22     8    44 1   
    23     8    45 1   
    24     8    46 1   
    25     9    10 1   
    26     9    28 1   
    27     9    47 1   
    28    10    36 2   
    29    10    64 1   
    30    11    12 ar  
    31    11    27 ar  
    32    11    64 1   
    33    12    13 ar  
    34    12    48 1   
    35    13    14 ar  
    36    13    49 1   
    37    14    15 1   
    38    14    26 ar  
    39    15    31 1   
    40    16    17 ar  
    41    17    50 1   
    42    18    22 ar  
    43    18    35 1   
    44    19    29 ar  
    45    19    30 ar  
    46    19    35 1   
    47    20    21 1   
    48    20    29 ar  
    49    21    51 1   
    50    21    52 1   
    51    21    53 1   
    52    22    54 1   
    53    23    31 1   
    54    23    34 ar  
    55    24    32 1   
    56    24    33 ar  
    57    25    33 ar  
    58    25    34 ar  
    59    25    55 1   
    60    26    27 ar  
    61    26    56 1   
    62    27    57 1   
    63    28    58 1   
    64    28    59 1   
    65    28    60 1   
    66    32    62 1   
    67    32    63 1   
    68    61    64 1   
@<TRIPOS>SUBSTRUCTURE
     1 UIM         1 TEMP              0 ****  ****    0 ROOT
