@<TRIPOS>MOLECULE
UIN
   47    49     1     0     0
SMALL
bcc


@<TRIPOS>ATOM
      1 CA           0.0010     0.3120     0.3950 cc         1 UIN      -0.368400
      2 CA2         -1.2190    -0.3890     0.1400 c          1 UIN       0.766800
      3 OA2         -2.1780    -0.4860     0.8760 o          1 UIN      -0.578500
      4 OA3         -1.3300    -1.0200    -1.0680 os         1 UIN      -0.337200
      5 CA4         -0.3670    -1.0360    -2.0010 cc         1 UIN       0.182900
      6 CA5          0.8150    -0.4160    -1.8100 cd         1 UIN      -0.217200
      7 CA6          0.9780     0.2950    -0.5710 cd         1 UIN       0.249100
      8 OA6          2.1430     0.9240    -0.4540 oh         1 UIN      -0.481100
      9 CB1          0.1530     0.0090     2.8580 ca         1 UIN      -0.074300
     10 CB2          1.2950    -0.7680     3.0430 ca         1 UIN      -0.113500
     11 CB3          1.3630    -1.7220     4.0480 ca         1 UIN      -0.130000
     12 CB4          0.2780    -1.9130     4.8960 ca         1 UIN      -0.128000
     13 CB5         -0.8640    -1.1430     4.7230 ca         1 UIN      -0.130000
     14 CB6         -0.9260    -0.1930     3.7120 ca         1 UIN      -0.113500
     15 CG1          0.1450     1.0220     1.7250 c3         1 UIN       0.070800
     16 CG2         -0.8400     2.1880     1.8830 c3         1 UIN      -0.073400
     17 CG3         -0.5280     3.0730     3.0820 c3         1 UIN      -0.091100
     18 CD1         -0.7970    -1.6870    -3.2660 c3         1 UIN      -0.040200
     19 CD2         -1.5320    -0.6940    -4.1800 c3         1 UIN      -0.068400
     20 CD3         -0.8180     0.6380    -4.4100 c3         1 UIN      -0.075400
     21 CD4          0.6230     0.5450    -4.9350 c3         1 UIN      -0.073400
     22 CD5          1.7440     0.7120    -3.9060 c3         1 UIN      -0.071400
     23 CD6          1.8890    -0.4020    -2.8660 c3         1 UIN      -0.004200
     24 HO6          2.2050     1.4170     0.3740 ho         1 UIN       0.442000
     25 HB2          2.1490    -0.6230     2.3900 ha         1 UIN       0.129500
     26 HB3          2.2620    -2.3110     4.1730 ha         1 UIN       0.129000
     27 HB4          0.3250    -2.6530     5.6840 ha         1 UIN       0.128000
     28 HB5         -1.7140    -1.2830     5.3780 ha         1 UIN       0.129000
     29 HB6         -1.8280     0.3950     3.6000 ha         1 UIN       0.129500
     30 HG1          1.1370     1.4900     1.7660 hc         1 UIN       0.024700
     31 HG21        -1.8650     1.8200     1.9380 hc         1 UIN       0.051700
     32 HG22        -0.7830     2.7900     0.9730 hc         1 UIN       0.051700
     33 HG31        -1.2330     3.9030     3.1430 hc         1 UIN       0.034033
     34 HG32        -0.5840     2.5260     4.0230 hc         1 UIN       0.034033
     35 HG33         0.4750     3.4970     3.0080 hc         1 UIN       0.034033
     36 HD11         0.0720    -2.0910    -3.7830 hc         1 UIN       0.068700
     37 HD12        -1.4510    -2.5340    -3.0480 hc         1 UIN       0.068700
     38 HD21        -1.6920    -1.1910    -5.1410 hc         1 UIN       0.048700
     39 HD22        -2.5250    -0.4940    -3.7700 hc         1 UIN       0.048700
     40 HD31        -1.4220     1.1940    -5.1300 hc         1 UIN       0.043200
     41 HD32        -0.8390     1.2390    -3.4950 hc         1 UIN       0.043200
     42 HD41         0.7630    -0.3980    -5.4760 hc         1 UIN       0.036700
     43 HD42         0.7680     1.3280    -5.6830 hc         1 UIN       0.036700
     44 HD51         2.6900     0.7740    -4.4510 hc         1 UIN       0.042700
     45 HD52         1.6280     1.6740    -3.3970 hc         1 UIN       0.042700
     46 HD61         2.8630    -0.3090    -2.3870 hc         1 UIN       0.050200
     47 HD62         1.9150    -1.3650    -3.3800 hc         1 UIN       0.050200
@<TRIPOS>BOND
     1     1     2 1   
     2     1     7 2   
     3     1    15 1   
     4     2     3 2   
     5     2     4 1   
     6     4     5 1   
     7     5     6 2   
     8     5    18 1   
     9     6     7 1   
    10     6    23 1   
    11     7     8 1   
    12     8    24 1   
    13     9    10 ar  
    14     9    14 ar  
    15     9    15 1   
    16    10    11 ar  
    17    10    25 1   
    18    11    12 ar  
    19    11    26 1   
    20    12    13 ar  
    21    12    27 1   
    22    13    14 ar  
    23    13    28 1   
    24    14    29 1   
    25    15    16 1   
    26    15    30 1   
    27    16    17 1   
    28    16    31 1   
    29    16    32 1   
    30    17    33 1   
    31    17    34 1   
    32    17    35 1   
    33    18    19 1   
    34    18    36 1   
    35    18    37 1   
    36    19    20 1   
    37    19    38 1   
    38    19    39 1   
    39    20    21 1   
    40    20    40 1   
    41    20    41 1   
    42    21    22 1   
    43    21    42 1   
    44    21    43 1   
    45    22    23 1   
    46    22    44 1   
    47    22    45 1   
    48    23    46 1   
    49    23    47 1   
@<TRIPOS>SUBSTRUCTURE
     1 UIN         1 TEMP              0 ****  ****    0 ROOT
