@<TRIPOS>MOLECULE
UIN
   47    49     1     0     0
SMALL
No Charge or Current Charge


@<TRIPOS>ATOM
      1 CA           0.0590     0.3240     0.4040 cc         1 UIN      -0.368400
      2 CA2         -1.1940    -0.4140     0.1540 c          1 UIN       0.691300
      3 OA2         -2.1170    -0.4880     0.9510 o          1 UIN      -0.503000
      4 OA3         -1.3050    -1.0220    -1.0530 os         1 UIN      -0.337200
      5 CA4         -0.3700    -1.0170    -2.0470 cc         1 UIN       0.182900
      6 CA5          0.8240    -0.3450    -1.8270 cd         1 UIN      -0.217200
      7 CA6          1.0280     0.3440    -0.5730 cd         1 UIN       0.249100
      8 OA6          2.1790     1.0170    -0.3880 oh         1 UIN      -0.520100
      9 CB1          0.1600    -0.0250     2.9220 ca         1 UIN      -0.074300
     10 CB2          1.2870    -0.8570     3.0940 ca         1 UIN      -0.095500
     11 CB3          1.3260    -1.8120     4.1240 ca         1 UIN      -0.112000
     12 CB4          0.2350    -1.9520     4.9950 ca         1 UIN      -0.110000
     13 CB5         -0.8960    -1.1380     4.8320 ca         1 UIN      -0.112000
     14 CB6         -0.9370    -0.1820     3.8020 ca         1 UIN      -0.095500
     15 CG1          0.1770     1.0000     1.7730 c3         1 UIN       0.070800
     16 CG2         -0.7880     2.2130     1.9160 c3         1 UIN      -0.073400
     17 CG3         -0.4830     3.1270     3.1240 c3         1 UIN      -0.091100
     18 CD1         -0.8090    -1.7170    -3.3080 c3         1 UIN      -0.040200
     19 CD2         -1.5340    -0.7770    -4.2960 c3         1 UIN      -0.068400
     20 CD3         -0.8520     0.5940    -4.5460 c3         1 UIN      -0.075400
     21 CD4          0.6160     0.5380    -5.0420 c3         1 UIN      -0.073400
     22 CD5          1.7080     0.7900    -3.9660 c3         1 UIN      -0.071400
     23 CD6          1.9010    -0.3210    -2.9070 c3         1 UIN      -0.004200
     24 HO6          2.1130     1.4320     0.4930 ho         1 UIN       0.481000
     25 HB2          2.1390    -0.7630     2.4250 ha         1 UIN       0.111500
     26 HB3          2.2030    -2.4450     4.2450 ha         1 UIN       0.111000
     27 HB4          0.2640    -2.6920     5.7920 ha         1 UIN       0.110000
     28 HB5         -1.7460    -1.2480     5.5020 ha         1 UIN       0.111000
     29 HB6         -1.8300     0.4260     3.6940 ha         1 UIN       0.111500
     30 HG1          1.1680     1.4610     1.8370 hc         1 UIN       0.024700
     31 HG21        -1.8310     1.8820     1.9680 hc         1 UIN       0.051700
     32 HG22        -0.7120     2.8220     1.0070 hc         1 UIN       0.051700
     33 HG31        -1.1820     3.9720     3.1470 hc         1 UIN       0.034033
     34 HG32        -0.5760     2.5840     4.0710 hc         1 UIN       0.034033
     35 HG33         0.5350     3.5310     3.0580 hc         1 UIN       0.034033
     36 HD11         0.0400    -2.1900    -3.8110 hc         1 UIN       0.068700
     37 HD12        -1.4840    -2.5420    -3.0520 hc         1 UIN       0.068700
     38 HD21        -1.6580    -1.2990    -5.2530 hc         1 UIN       0.048700
     39 HD22        -2.5460    -0.5880    -3.9160 hc         1 UIN       0.048700
     40 HD31        -1.4480     1.1200    -5.3030 hc         1 UIN       0.043200
     41 HD32        -0.9160     1.2140    -3.6420 hc         1 UIN       0.043200
     42 HD41         0.8070    -0.4140    -5.5530 hc         1 UIN       0.036700
     43 HD42         0.7360     1.3150    -5.8090 hc         1 UIN       0.036700
     44 HD51         2.6630     0.9150    -4.4910 hc         1 UIN       0.042700
     45 HD52         1.5150     1.7440    -3.4610 hc         1 UIN       0.042700
     46 HD61         2.8910    -0.1820    -2.4550 hc         1 UIN       0.050200
     47 HD62         1.9870    -1.2900    -3.4100 hc         1 UIN       0.050200
@<TRIPOS>BOND
     1     1     2 1   
     2     1     7 2   
     3     1    15 1   
     4     2     3 2   
     5     2     4 1   
     6     4     5 1   
     7     5     6 2   
     8     5    18 1   
     9     6     7 1   
    10     6    23 1   
    11     7     8 1   
    12     8    24 1   
    13     9    10 ar  
    14     9    14 ar  
    15     9    15 1   
    16    10    11 ar  
    17    10    25 1   
    18    11    12 ar  
    19    11    26 1   
    20    12    13 ar  
    21    12    27 1   
    22    13    14 ar  
    23    13    28 1   
    24    14    29 1   
    25    15    16 1   
    26    15    30 1   
    27    16    17 1   
    28    16    31 1   
    29    16    32 1   
    30    17    33 1   
    31    17    34 1   
    32    17    35 1   
    33    18    19 1   
    34    18    36 1   
    35    18    37 1   
    36    19    20 1   
    37    19    38 1   
    38    19    39 1   
    39    20    21 1   
    40    20    40 1   
    41    20    41 1   
    42    21    22 1   
    43    21    42 1   
    44    21    43 1   
    45    22    23 1   
    46    22    44 1   
    47    22    45 1   
    48    23    46 1   
    49    23    47 1   
@<TRIPOS>SUBSTRUCTURE
     1 UIN         1 TEMP              0 ****  ****    0 ROOT
