@<TRIPOS>MOLECULE
UIO
   77    80     1     0     0
SMALL
abcg2


@<TRIPOS>ATOM
      1 N1          -7.1940   -40.9340   -34.1950 n3         1 UIO      -0.727600
      2 N3         -13.6290   -37.4660   -38.1350 no         1 UIO       0.689200
      3 C4          -7.6530   -39.7050   -33.5440 c3         1 UIO       0.178800
      4 C5          -8.9340   -39.8140   -32.7090 c3         1 UIO      -0.117400
      5 C6          -9.3160   -38.5000   -32.0220 c3         1 UIO      -0.067400
      6 C7          -9.5650   -37.3160   -32.9620 c3         1 UIO      -0.072400
      7 C8         -10.6300   -37.5820   -34.0220 c3         1 UIO      -0.096400
      8 C10        -12.2780   -35.7920   -36.8520 ca         1 UIO       0.437000
      9 C13        -13.1350   -33.8610   -38.7950 cp         1 UIO      -0.243500
     10 C15        -14.6190   -32.4790   -41.8150 ca         1 UIO       0.398900
     11 C17        -15.4640   -34.8810   -44.4420 c6         1 UIO       0.139600
     12 C20        -13.8340   -30.6850   -40.6620 ca         1 UIO       0.151900
     13 C21        -13.3620   -31.5020   -39.6480 ca         1 UIO      -0.286000
     14 C22        -12.2840   -33.5110   -37.7230 ca         1 UIO       0.015000
     15 C24         -8.1040   -41.3750   -35.2440 c6         1 UIO       0.168800
     16 C26         -6.9660   -43.5760   -35.2950 c6         1 UIO       0.132300
     17 C1          -6.0940   -43.1070   -34.1440 c6         1 UIO       0.139300
     18 C11        -13.1420   -36.1330   -37.9410 ca         1 UIO      -0.299200
     19 C12        -13.5430   -35.1770   -38.8770 ca         1 UIO       0.053000
     20 C14        -13.5770   -32.8760   -39.8010 cp         1 UIO       0.244500
     21 C16        -15.6160   -34.3870   -43.0130 c6         1 UIO       0.189800
     22 C18        -15.7070   -32.7150   -45.3010 c6         1 UIO       0.139600
     23 C19        -15.8740   -32.1270   -43.9090 c6         1 UIO       0.189800
     24 C2          -6.8150   -42.0360   -33.3050 c6         1 UIO       0.172500
     25 C23        -11.8710   -34.4300   -36.7970 ca         1 UIO      -0.237000
     26 C25         -7.4290   -42.4040   -36.1340 c6         1 UIO       0.176300
     27 C3          -5.9480   -41.5960   -32.1360 c3         1 UIO       0.156600
     28 C9         -10.9230   -36.3410   -34.8520 c3         1 UIO       0.223800
     29 N2         -11.8510   -36.6600   -35.9280 nu         1 UIO      -0.943200
     30 N4         -14.2070   -33.3500   -40.8800 nb         1 UIO      -0.264000
     31 N5         -15.2220   -32.9860   -42.9280 nh         1 UIO      -0.775300
     32 N6         -14.4600   -31.1400   -41.7440 nb         1 UIO      -0.245000
     33 O1          -5.7930   -44.2740   -33.3710 oh         1 UIO      -0.739000
     34 O2          -4.7380   -41.0050   -32.6170 oh         1 UIO      -0.656000
     35 O3         -13.3220   -38.3490   -37.3170 o          1 UIO      -0.424500
     36 O4         -14.3430   -37.7150   -39.1080 o          1 UIO      -0.424500
     37 O5         -16.1780   -34.0590   -45.3620 os         1 UIO      -0.455000
     38 O6          -8.3690   -42.8150   -37.1270 oh         1 UIO      -0.724000
     39 O7          -6.2650   -44.4810   -36.1480 oh         1 UIO      -0.672000
     40 H2          -7.7990   -38.9750   -34.3420 h1         1 UIO       0.055700
     41 H3          -6.8440   -39.3180   -32.9210 h1         1 UIO       0.055700
     42 H4          -8.8060   -40.5800   -31.9400 hc         1 UIO       0.043700
     43 H5          -9.7570   -40.1540   -33.3430 hc         1 UIO       0.043700
     44 H6          -8.5250   -38.2250   -31.3170 hc         1 UIO       0.042200
     45 H7         -10.2180   -38.6690   -31.4240 hc         1 UIO       0.042200
     46 H8          -8.6330   -37.0290   -33.4580 hc         1 UIO       0.041700
     47 H9          -9.8660   -36.4530   -32.3590 hc         1 UIO       0.041700
     48 H10        -11.5550   -37.9250   -33.5450 hc         1 UIO       0.056200
     49 H11        -10.3030   -38.3820   -34.6920 hc         1 UIO       0.056200
     50 H13        -13.7060   -29.6090   -40.5990 h4         1 UIO       0.020100
     51 H14        -12.8740   -31.0770   -38.7860 ha         1 UIO       0.129000
     52 H15        -11.9270   -32.4960   -37.6230 ha         1 UIO       0.119000
     53 H16         -8.3870   -40.5110   -35.8480 h1         1 UIO       0.049200
     54 H17         -9.0320   -41.8170   -34.8460 h1         1 UIO       0.049200
     55 H18         -7.8510   -44.0750   -34.8760 h1         1 UIO       0.052700
     56 H19         -5.1730   -42.6790   -34.5450 h1         1 UIO       0.075700
     57 H20        -14.1910   -35.4850   -39.6810 ha         1 UIO       0.167000
     58 H21        -16.6610   -34.4970   -42.6940 h1         1 UIO       0.066950
     59 H22        -14.6480   -32.6850   -45.5910 h1         1 UIO       0.055950
     60 H23        -15.4330   -31.1360   -43.8710 h1         1 UIO       0.066950
     61 H24         -7.7020   -42.5170   -32.8570 h1         1 UIO       0.039700
     62 H25        -11.2140   -34.1170   -36.0010 ha         1 UIO       0.124000
     63 H26         -6.5550   -41.9490   -36.6140 h1         1 UIO       0.059700
     64 H27         -6.4920   -40.8920   -31.5030 h1         1 UIO       0.026700
     65 H28         -5.7300   -42.4790   -31.5290 h1         1 UIO       0.026700
     66 H29         -9.9920   -35.9500   -35.2760 h1         1 UIO       0.048200
     67 H30        -11.3450   -35.5560   -34.2170 h1         1 UIO       0.048200
     68 H31        -12.1680   -37.6130   -36.0250 hn         1 UIO       0.538000
     69 H32         -4.9280   -44.1630   -32.9590 ho         1 UIO       0.510000
     70 H33         -4.1850   -40.7940   -31.8560 ho         1 UIO       0.438000
     71 H34         -7.9630   -43.5320   -37.6320 ho         1 UIO       0.523000
     72 H35         -5.9280   -45.1960   -35.5930 ho         1 UIO       0.460000
     73 H1         -14.4010   -34.8980   -44.7160 h1         1 UIO       0.055950
     74 H36        -14.9920   -34.9780   -42.3490 h1         1 UIO       0.066950
     75 H37        -16.2890   -32.1420   -46.0220 h1         1 UIO       0.055950
     76 H38        -16.9420   -32.0410   -43.6730 h1         1 UIO       0.066950
     77 H12        -15.8700   -35.8880   -44.5360 h1         1 UIO       0.055950
@<TRIPOS>BOND
     1     1     3 1   
     2     1    15 1   
     3     1    24 1   
     4     2    18 1   
     5     2    35 1   
     6     2    36 1   
     7     3     4 1   
     8     3    40 1   
     9     3    41 1   
    10     4     5 1   
    11     4    42 1   
    12     4    43 1   
    13     5     6 1   
    14     5    44 1   
    15     5    45 1   
    16     6     7 1   
    17     6    46 1   
    18     6    47 1   
    19     7    28 1   
    20     7    48 1   
    21     7    49 1   
    22     8    18 ar  
    23     8    25 ar  
    24     8    29 1   
    25     9    14 ar  
    26     9    19 ar  
    27     9    20 1   
    28    10    30 ar  
    29    10    31 1   
    30    10    32 ar  
    31    11    21 1   
    32    11    37 1   
    33    11    73 1   
    34    11    77 1   
    35    12    13 ar  
    36    12    32 ar  
    37    12    50 1   
    38    13    20 ar  
    39    13    51 1   
    40    14    25 ar  
    41    14    52 1   
    42    15    26 1   
    43    15    53 1   
    44    15    54 1   
    45    16    17 1   
    46    16    26 1   
    47    16    39 1   
    48    16    55 1   
    49    17    24 1   
    50    17    33 1   
    51    17    56 1   
    52    18    19 ar  
    53    19    57 1   
    54    20    30 ar  
    55    21    31 1   
    56    21    58 1   
    57    21    74 1   
    58    22    23 1   
    59    22    37 1   
    60    22    59 1   
    61    22    75 1   
    62    23    31 1   
    63    23    60 1   
    64    23    76 1   
    65    24    27 1   
    66    24    61 1   
    67    25    62 1   
    68    26    38 1   
    69    26    63 1   
    70    27    34 1   
    71    27    64 1   
    72    27    65 1   
    73    28    29 1   
    74    28    66 1   
    75    28    67 1   
    76    29    68 1   
    77    33    69 1   
    78    34    70 1   
    79    38    71 1   
    80    39    72 1   
@<TRIPOS>SUBSTRUCTURE
     1 UIO         1 TEMP              0 ****  ****    0 ROOT
