@<TRIPOS>MOLECULE
UIO
   77    80     1     0     0
SMALL
No Charge or Current Charge


@<TRIPOS>ATOM
      1 N1          -6.9370   -41.0000   -34.0580 n3         1 UIO      -0.727600
      2 N3         -13.8320   -37.3600   -37.9950 no         1 UIO       0.689200
      3 C4          -7.5220   -39.7870   -33.4200 c3         1 UIO       0.178800
      4 C5          -8.9280   -39.9740   -32.7910 c3         1 UIO      -0.117400
      5 C6          -9.4760   -38.7100   -32.0820 c3         1 UIO      -0.067400
      6 C7          -9.6440   -37.4540   -32.9750 c3         1 UIO      -0.072400
      7 C8         -10.6140   -37.6390   -34.1660 c3         1 UIO      -0.096400
      8 C10        -12.2240   -35.6580   -37.0160 ca         1 UIO       0.437000
      9 C13        -13.1300   -33.7250   -38.9100 cp         1 UIO      -0.243500
     10 C15        -14.6590   -32.2780   -41.9300 ca         1 UIO       0.398900
     11 C17        -15.8980   -34.7360   -44.6530 c6         1 UIO       0.139600
     12 C20        -13.9420   -30.4590   -40.7250 ca         1 UIO       0.151900
     13 C21        -13.4570   -31.3160   -39.7270 ca         1 UIO      -0.286000
     14 C22        -12.1210   -33.4120   -37.9700 ca         1 UIO       0.015000
     15 C24         -7.6690   -41.3970   -35.3040 c6         1 UIO       0.168800
     16 C26         -6.7590   -43.7520   -35.1550 c6         1 UIO       0.132300
     17 C1          -5.9520   -43.3440   -33.8920 c6         1 UIO       0.139300
     18 C11        -13.2270   -36.0010   -37.9450 ca         1 UIO      -0.299200
     19 C12        -13.6670   -35.0390   -38.8820 ca         1 UIO       0.053000
     20 C14        -13.6090   -32.7100   -39.9090 cp         1 UIO       0.244500
     21 C16        -15.6870   -34.2500   -43.1880 c6         1 UIO       0.189800
     22 C18        -16.2450   -32.5020   -45.4540 c6         1 UIO       0.139600
     23 C19        -16.0530   -31.8900   -44.0350 c6         1 UIO       0.189800
     24 C2          -6.6860   -42.1750   -33.1320 c6         1 UIO       0.172500
     25 C23        -11.6780   -34.3660   -37.0440 ca         1 UIO      -0.237000
     26 C25         -6.9410   -42.5270   -36.0850 c6         1 UIO       0.176300
     27 C3          -5.9050   -41.8040   -31.8120 c3         1 UIO       0.156600
     28 C9         -10.8250   -36.3420   -34.9700 c3         1 UIO       0.223800
     29 N2         -11.7480   -36.5810   -36.0870 nu         1 UIO      -0.943200
     30 N4         -14.2190   -33.1700   -41.0180 nb         1 UIO      -0.264000
     31 N5         -15.2930   -32.7960   -43.0950 nh         1 UIO      -0.775300
     32 N6         -14.5420   -30.9370   -41.8290 nb         1 UIO      -0.245000
     33 O1          -5.7550   -44.5140   -33.0600 oh         1 UIO      -0.739000
     34 O2          -4.5570   -41.3530   -32.0430 oh         1 UIO      -0.656000
     35 O3         -13.9480   -38.0010   -36.9420 o          1 UIO      -0.424500
     36 O4         -14.2650   -37.7570   -39.0830 o          1 UIO      -0.424500
     37 O5         -16.7760   -33.8440   -45.3740 os         1 UIO      -0.455000
     38 O6          -7.6710   -42.9200   -37.2630 oh         1 UIO      -0.724000
     39 O7          -6.0940   -44.8270   -35.8480 oh         1 UIO      -0.672000
     40 H2          -7.5890   -38.9920   -34.1750 h1         1 UIO       0.055700
     41 H3          -6.8430   -39.4030   -32.6480 h1         1 UIO       0.055700
     42 H4          -8.8880   -40.7790   -32.0490 hc         1 UIO       0.043700
     43 H5          -9.6410   -40.2970   -33.5570 hc         1 UIO       0.043700
     44 H6          -8.8080   -38.4580   -31.2480 hc         1 UIO       0.042200
     45 H7         -10.4460   -38.9540   -31.6330 hc         1 UIO       0.042200
     46 H8          -8.6640   -37.1310   -33.3470 hc         1 UIO       0.041700
     47 H9         -10.0150   -36.6360   -32.3440 hc         1 UIO       0.041700
     48 H10        -11.5810   -37.9930   -33.7900 hc         1 UIO       0.056200
     49 H11        -10.2220   -38.4100   -34.8400 hc         1 UIO       0.056200
     50 H13        -13.8550   -29.3770   -40.6380 h4         1 UIO       0.020100
     51 H14        -12.9930   -30.9010   -38.8390 ha         1 UIO       0.129000
     52 H15        -11.6570   -32.4290   -37.9620 ha         1 UIO       0.119000
     53 H16         -7.7750   -40.5290   -35.9710 h1         1 UIO       0.049200
     54 H17         -8.6850   -41.7410   -35.0580 h1         1 UIO       0.049200
     55 H18         -7.7540   -44.0870   -34.8250 h1         1 UIO       0.052700
     56 H19         -4.9770   -42.9580   -34.2300 h1         1 UIO       0.075700
     57 H20        -14.4500   -35.3060   -39.5920 ha         1 UIO       0.167000
     58 H21        -16.6160   -34.4210   -42.6240 h1         1 UIO       0.066950
     59 H22        -15.2800   -32.5270   -45.9810 h1         1 UIO       0.055950
     60 H23        -15.5330   -30.9300   -44.1670 h1         1 UIO       0.066950
     61 H24         -7.6590   -42.5720   -32.8060 h1         1 UIO       0.039700
     62 H25        -10.8960   -34.0840   -36.3470 ha         1 UIO       0.124000
     63 H26         -5.9450   -42.1550   -36.3700 h1         1 UIO       0.059700
     64 H27         -6.4710   -41.0380   -31.2670 h1         1 UIO       0.026700
     65 H28         -5.8920   -42.6860   -31.1590 h1         1 UIO       0.026700
     66 H29         -9.8550   -35.9920   -35.3500 h1         1 UIO       0.048200
     67 H30        -11.2310   -35.5660   -34.3060 h1         1 UIO       0.048200
     68 H31        -12.3000   -37.4420   -36.0470 hn         1 UIO       0.538000
     69 H32         -5.0180   -44.3010   -32.4390 ho         1 UIO       0.510000
     70 H33         -4.2140   -41.0200   -31.1840 ho         1 UIO       0.438000
     71 H34         -7.3350   -43.8280   -37.4600 ho         1 UIO       0.523000
     72 H35         -5.7430   -45.3990   -35.1260 ho         1 UIO       0.460000
     73 H1         -14.9290   -34.7860   -45.1710 h1         1 UIO       0.055950
     74 H36        -14.9170   -34.8980   -42.7430 h1         1 UIO       0.066950
     75 H37        -16.9330   -31.8760   -46.0390 h1         1 UIO       0.055950
     76 H38        -17.0440   -31.6650   -43.6140 h1         1 UIO       0.066950
     77 H12        -16.3320   -35.7460   -44.6500 h1         1 UIO       0.055950
@<TRIPOS>BOND
     1     1     3 1   
     2     1    15 1   
     3     1    24 1   
     4     2    18 1   
     5     2    35 1   
     6     2    36 1   
     7     3     4 1   
     8     3    40 1   
     9     3    41 1   
    10     4     5 1   
    11     4    42 1   
    12     4    43 1   
    13     5     6 1   
    14     5    44 1   
    15     5    45 1   
    16     6     7 1   
    17     6    46 1   
    18     6    47 1   
    19     7    28 1   
    20     7    48 1   
    21     7    49 1   
    22     8    18 ar  
    23     8    25 ar  
    24     8    29 1   
    25     9    14 ar  
    26     9    19 ar  
    27     9    20 1   
    28    10    30 ar  
    29    10    31 1   
    30    10    32 ar  
    31    11    21 1   
    32    11    37 1   
    33    11    73 1   
    34    11    77 1   
    35    12    13 ar  
    36    12    32 ar  
    37    12    50 1   
    38    13    20 ar  
    39    13    51 1   
    40    14    25 ar  
    41    14    52 1   
    42    15    26 1   
    43    15    53 1   
    44    15    54 1   
    45    16    17 1   
    46    16    26 1   
    47    16    39 1   
    48    16    55 1   
    49    17    24 1   
    50    17    33 1   
    51    17    56 1   
    52    18    19 ar  
    53    19    57 1   
    54    20    30 ar  
    55    21    31 1   
    56    21    58 1   
    57    21    74 1   
    58    22    23 1   
    59    22    37 1   
    60    22    59 1   
    61    22    75 1   
    62    23    31 1   
    63    23    60 1   
    64    23    76 1   
    65    24    27 1   
    66    24    61 1   
    67    25    62 1   
    68    26    38 1   
    69    26    63 1   
    70    27    34 1   
    71    27    64 1   
    72    27    65 1   
    73    28    29 1   
    74    28    66 1   
    75    28    67 1   
    76    29    68 1   
    77    33    69 1   
    78    34    70 1   
    79    38    71 1   
    80    39    72 1   
@<TRIPOS>SUBSTRUCTURE
     1 UIO         1 TEMP              0 ****  ****    0 ROOT
