@<TRIPOS>MOLECULE
UIP
   63    68     1     0     0
SMALL
No Charge or Current Charge


@<TRIPOS>ATOM
      1 N1          -0.5970     0.9510    -5.1820 n2         1 UIP      -0.830100
      2 C3          -1.3260     0.1150    -4.5640 ce         1 UIP       0.661800
      3 N2          -1.8370    -0.9230    -5.2590 nv         1 UIP      -1.076200
      4 C4          -1.5890     0.1790    -3.0890 ca         1 UIP      -0.142900
      5 C9          -0.7390     0.9220    -2.2410 ca         1 UIP      -0.079000
      6 C8          -0.9960     1.0180    -0.8630 ca         1 UIP      -0.097000
      7 C7          -2.1240     0.3910    -0.2900 ca         1 UIP      -0.058300
      8 C6          -2.9900    -0.3230    -1.1410 ca         1 UIP      -0.097000
      9 C5          -2.7310    -0.4290    -2.5190 ca         1 UIP      -0.079000
     10 C10         -2.4620     0.4870     1.2100 c5         1 UIP       0.262800
     11 N11         -1.9120     1.7230     1.8540 n3         1 UIP      -0.753600
     12 C12         -2.8440     2.2190     2.8980 c5         1 UIP       0.181800
     13 C13         -1.8920     3.1670     3.6670 c5         1 UIP      -0.087400
     14 C14         -0.5520     2.3620     3.7230 c5         1 UIP      -0.091400
     15 C15         -0.6950     1.3080     2.5760 c5         1 UIP       0.185500
     16 C16         -1.0940    -0.0700     3.1970 c5         1 UIP      -0.101700
     17 C17          0.2260    -0.8880     3.3540 c5         1 UIP       0.118700
     18 N19          0.3890    -1.4280     1.9890 n          1 UIP      -0.417800
     19 C20         -0.7830    -1.5280     1.2370 c          1 UIP       0.576000
     20 O21         -0.9150    -2.2590     0.2640 o          1 UIP      -0.536000
     21 C22         -1.8490    -0.7360     2.0090 c5         1 UIP      -0.158700
     22 C23          1.6740    -1.8540     1.4100 c3         1 UIP       0.159300
     23 C24          2.1310    -0.9340     0.2870 ca         1 UIP      -0.120300
     24 C32          2.6330     0.3570     0.5890 ca         1 UIP      -0.107000
     25 C31          3.0430     1.2270    -0.4430 ca         1 UIP      -0.104000
     26 C30          2.9380     0.7750    -1.7640 ca         1 UIP       0.057100
     27 O29          3.2960     1.4700    -2.8730 os         1 UIP      -0.346100
     28 C28          2.8910     0.5680    -3.9640 c5         1 UIP       0.372600
     29 O27          2.4480    -0.7150    -3.3960 os         1 UIP      -0.338100
     30 C26          2.4550    -0.4680    -2.0610 ca         1 UIP       0.052100
     31 C25          2.0390    -1.3540    -1.0610 ca         1 UIP      -0.076000
     32 C18          0.1010    -2.0100     4.4170 c3         1 UIP      -0.085400
     33 C42          1.3720    -2.8550     4.6430 c3         1 UIP      -0.087100
     34 HN1         -0.7670     0.8340    -6.1870 hn         1 UIP       0.366400
     35 HN21        -1.3320    -1.1790    -6.0990 hn         1 UIP       0.459000
     36 HN22        -2.1560    -1.7030    -4.6960 hn         1 UIP       0.459000
     37 H9           0.1330     1.4270    -2.6490 ha         1 UIP       0.124000
     38 H8          -0.3120     1.5940    -0.2470 ha         1 UIP       0.118500
     39 H6          -3.8760    -0.8030    -0.7300 ha         1 UIP       0.118500
     40 H5          -3.4370    -0.9760    -3.1400 ha         1 UIP       0.124000
     41 H10         -3.5570     0.4740     1.3070 h1         1 UIP       0.035700
     42 H121        -3.2400     1.4260     3.5490 h1         1 UIP       0.039200
     43 H122        -3.7010     2.7560     2.4680 h1         1 UIP       0.039200
     44 H131        -2.2730     3.4240     4.6610 hc         1 UIP       0.053700
     45 H132        -1.7600     4.1070     3.1170 hc         1 UIP       0.053700
     46 H141        -0.3920     1.8970     4.7030 hc         1 UIP       0.047700
     47 H142         0.3050     3.0210     3.5490 hc         1 UIP       0.047700
     48 H15          0.1890     1.2520     1.9250 h1         1 UIP       0.076700
     49 H16         -1.6860    -0.0020     4.1170 hc         1 UIP       0.070700
     50 H17          1.0690    -0.2400     3.6340 h1         1 UIP       0.063700
     51 H22         -2.6340    -1.4360     2.3130 hc         1 UIP       0.085700
     52 H231         1.5800    -2.8840     1.0410 h1         1 UIP       0.067200
     53 H232         2.4410    -1.8570     2.1950 h1         1 UIP       0.067200
     54 H32          2.7020     0.6850     1.6240 ha         1 UIP       0.114000
     55 H31          3.4320     2.2180    -0.2230 ha         1 UIP       0.133000
     56 H281         3.7380     0.4010    -4.6390 h2         1 UIP       0.065200
     57 H282         2.0590     1.0240    -4.5120 h2         1 UIP       0.065200
     58 H25          1.6500    -2.3360    -1.3220 ha         1 UIP       0.154000
     59 H181        -0.7250    -2.6840     4.1560 hc         1 UIP       0.044200
     60 H182        -0.1710    -1.5550     5.3780 hc         1 UIP       0.044200
     61 H421         1.2310    -3.5320     5.4930 hc         1 UIP       0.035700
     62 H422         1.6000    -3.4660     3.7620 hc         1 UIP       0.035700
     63 H423         2.2340    -2.2110     4.8570 hc         1 UIP       0.035700
@<TRIPOS>BOND
     1     1     2 2   
     2     1    34 1   
     3     2     3 1   
     4     2     4 1   
     5     3    35 1   
     6     3    36 1   
     7     4     5 ar  
     8     4     9 ar  
     9     5     6 ar  
    10     5    37 1   
    11     6     7 ar  
    12     6    38 1   
    13     7     8 ar  
    14     7    10 1   
    15     8     9 ar  
    16     8    39 1   
    17     9    40 1   
    18    10    11 1   
    19    10    21 1   
    20    10    41 1   
    21    11    12 1   
    22    11    15 1   
    23    12    13 1   
    24    12    42 1   
    25    12    43 1   
    26    13    14 1   
    27    13    44 1   
    28    13    45 1   
    29    14    15 1   
    30    14    46 1   
    31    14    47 1   
    32    15    16 1   
    33    15    48 1   
    34    16    17 1   
    35    16    21 1   
    36    16    49 1   
    37    17    18 1   
    38    17    32 1   
    39    17    50 1   
    40    18    19 1   
    41    18    22 1   
    42    19    20 2   
    43    19    21 1   
    44    21    51 1   
    45    22    23 1   
    46    22    52 1   
    47    22    53 1   
    48    23    24 ar  
    49    23    31 ar  
    50    24    25 ar  
    51    24    54 1   
    52    25    26 ar  
    53    25    55 1   
    54    26    27 1   
    55    26    30 ar  
    56    27    28 1   
    57    28    29 1   
    58    28    56 1   
    59    28    57 1   
    60    29    30 1   
    61    30    31 ar  
    62    31    58 1   
    63    32    33 1   
    64    32    59 1   
    65    32    60 1   
    66    33    61 1   
    67    33    62 1   
    68    33    63 1   
@<TRIPOS>SUBSTRUCTURE
     1 UIP         1 TEMP              0 ****  ****    0 ROOT
