@<TRIPOS>MOLECULE
UIP
   63    68     1     0     0
SMALL
abcg2


@<TRIPOS>ATOM
      1 N1          -2.4760    -0.0370    -5.6060 n2         1 UIP      -0.830100
      2 C3          -3.0150    -0.8190    -4.7490 ce         1 UIP       0.661800
      3 N2          -3.8070    -1.8950    -5.0370 nv         1 UIP      -1.076200
      4 C4          -2.8280    -0.5360    -3.3000 ca         1 UIP      -0.142900
      5 C9          -1.7240     0.2030    -2.8790 ca         1 UIP      -0.079000
      6 C8          -1.5230     0.4770    -1.5380 ca         1 UIP      -0.097000
      7 C7          -2.4210     0.0250    -0.5770 ca         1 UIP      -0.058300
      8 C6          -3.5390    -0.6850    -0.9980 ca         1 UIP      -0.097000
      9 C5          -3.7400    -0.9710    -2.3400 ca         1 UIP      -0.079000
     10 C10         -2.2090     0.2980     0.8920 c5         1 UIP       0.262800
     11 N11         -1.3660     1.4440     1.1440 n3         1 UIP      -0.753600
     12 C12         -2.0330     2.7120     1.3740 c5         1 UIP       0.181800
     13 C13         -1.0380     3.4900     2.2240 c5         1 UIP      -0.087400
     14 C14         -0.4650     2.4020     3.1320 c5         1 UIP      -0.091400
     15 C15         -0.4000     1.1790     2.2140 c5         1 UIP       0.185500
     16 C16         -0.8000    -0.1680     2.8250 c5         1 UIP      -0.101700
     17 C17          0.3960    -1.0820     3.0910 c5         1 UIP       0.118700
     18 N19          0.6030    -1.6950     1.7860 n          1 UIP      -0.417800
     19 C20         -0.4810    -1.6470     0.9800 c          1 UIP       0.576000
     20 O21         -0.5660    -2.1640    -0.1200 o          1 UIP      -0.536000
     21 C22         -1.5640    -0.8560     1.6920 c5         1 UIP      -0.158700
     22 C23          1.9180    -2.0680     1.2990 c3         1 UIP       0.159300
     23 C24          2.6610    -0.8540     0.7990 ca         1 UIP      -0.120300
     24 C32          3.6580    -0.2700     1.5660 ca         1 UIP      -0.107000
     25 C31          4.3050     0.9090     1.1710 ca         1 UIP      -0.104000
     26 C30          3.9020     1.4650    -0.0150 ca         1 UIP       0.057100
     27 O29          4.3670     2.5770    -0.6370 os         1 UIP      -0.346100
     28 C28          3.4990     2.8050    -1.7400 c5         1 UIP       0.372600
     29 O27          2.7340     1.6210    -1.9170 os         1 UIP      -0.338100
     30 C26          2.9100     0.8850    -0.7930 ca         1 UIP       0.052100
     31 C25          2.2740    -0.2700    -0.4210 ca         1 UIP      -0.076000
     32 C18          0.1070    -2.1000     4.1940 c3         1 UIP      -0.085400
     33 C42          1.1670    -3.1770     4.3730 c3         1 UIP      -0.087100
     34 HN1         -2.6500    -0.3590    -6.5540 hn         1 UIP       0.366400
     35 HN21        -3.8260    -2.2080    -5.9950 hn         1 UIP       0.459000
     36 HN22        -3.8530    -2.6470    -4.3700 hn         1 UIP       0.459000
     37 H9          -1.0140     0.5570    -3.6160 ha         1 UIP       0.124000
     38 H8          -0.6560     1.0440    -1.2230 ha         1 UIP       0.118500
     39 H6          -4.2710    -1.0180    -0.2700 ha         1 UIP       0.118500
     40 H5          -4.6310    -1.5130    -2.6300 ha         1 UIP       0.124000
     41 H10         -3.2050     0.4570     1.3360 h1         1 UIP       0.035700
     42 H121        -2.9780     2.5790     1.9260 h1         1 UIP       0.039200
     43 H122        -2.2790     3.2170     0.4370 h1         1 UIP       0.039200
     44 H131        -1.5070     4.3070     2.7720 hc         1 UIP       0.053700
     45 H132        -0.2530     3.9170     1.5950 hc         1 UIP       0.053700
     46 H141        -1.1460     2.2140     3.9670 hc         1 UIP       0.047700
     47 H142         0.5060     2.6630     3.5530 hc         1 UIP       0.047700
     48 H15          0.6090     1.0910     1.7870 h1         1 UIP       0.076700
     49 H16         -1.4170    -0.0280     3.7160 hc         1 UIP       0.070700
     50 H17          1.2830    -0.4990     3.3630 h1         1 UIP       0.063700
     51 H22         -2.3390    -1.5430     2.0390 hc         1 UIP       0.085700
     52 H231         1.7940    -2.8060     0.5070 h1         1 UIP       0.067200
     53 H232         2.4790    -2.5490     2.0990 h1         1 UIP       0.067200
     54 H32          3.9440    -0.7310     2.5040 ha         1 UIP       0.114000
     55 H31          5.0830     1.3540     1.7760 ha         1 UIP       0.133000
     56 H281         4.0870     3.0030    -2.6360 h2         1 UIP       0.065200
     57 H282         2.8350     3.6480    -1.5220 h2         1 UIP       0.065200
     58 H25          1.5020    -0.7130    -1.0360 ha         1 UIP       0.154000
     59 H181        -0.8620    -2.5710     4.0010 hc         1 UIP       0.044200
     60 H182        -0.0060    -1.5410     5.1270 hc         1 UIP       0.044200
     61 H421         0.9350    -3.8030     5.2350 hc         1 UIP       0.035700
     62 H422         1.2250    -3.8330     3.5030 hc         1 UIP       0.035700
     63 H423         2.1570    -2.7480     4.5380 hc         1 UIP       0.035700
@<TRIPOS>BOND
     1     1     2 2   
     2     1    34 1   
     3     2     3 1   
     4     2     4 1   
     5     3    35 1   
     6     3    36 1   
     7     4     5 ar  
     8     4     9 ar  
     9     5     6 ar  
    10     5    37 1   
    11     6     7 ar  
    12     6    38 1   
    13     7     8 ar  
    14     7    10 1   
    15     8     9 ar  
    16     8    39 1   
    17     9    40 1   
    18    10    11 1   
    19    10    21 1   
    20    10    41 1   
    21    11    12 1   
    22    11    15 1   
    23    12    13 1   
    24    12    42 1   
    25    12    43 1   
    26    13    14 1   
    27    13    44 1   
    28    13    45 1   
    29    14    15 1   
    30    14    46 1   
    31    14    47 1   
    32    15    16 1   
    33    15    48 1   
    34    16    17 1   
    35    16    21 1   
    36    16    49 1   
    37    17    18 1   
    38    17    32 1   
    39    17    50 1   
    40    18    19 1   
    41    18    22 1   
    42    19    20 2   
    43    19    21 1   
    44    21    51 1   
    45    22    23 1   
    46    22    52 1   
    47    22    53 1   
    48    23    24 ar  
    49    23    31 ar  
    50    24    25 ar  
    51    24    54 1   
    52    25    26 ar  
    53    25    55 1   
    54    26    27 1   
    55    26    30 ar  
    56    27    28 1   
    57    28    29 1   
    58    28    56 1   
    59    28    57 1   
    60    29    30 1   
    61    30    31 ar  
    62    31    58 1   
    63    32    33 1   
    64    32    59 1   
    65    32    60 1   
    66    33    61 1   
    67    33    62 1   
    68    33    63 1   
@<TRIPOS>SUBSTRUCTURE
     1 UIP         1 TEMP              0 ****  ****    0 ROOT
