@<TRIPOS>MOLECULE
UIQ
   66    71     1     0     0
SMALL
No Charge or Current Charge


@<TRIPOS>ATOM
      1 N1          -5.6920    -2.1370    -0.2380 n2         1 UIQ      -0.834100
      2 C3          -4.8270    -1.2320    -0.0260 ce         1 UIQ       0.663800
      3 N2          -5.2150     0.0560    -0.1280 nv         1 UIQ      -1.080200
      4 C4          -3.3710    -1.5150     0.1900 ca         1 UIQ      -0.140900
      5 C9          -2.8160    -2.7540    -0.1980 ca         1 UIQ      -0.080500
      6 C8          -1.4570    -3.0360     0.0230 ca         1 UIQ      -0.094500
      7 C7          -0.6110    -2.0960     0.6450 ca         1 UIQ      -0.063300
      8 C6          -1.1740    -0.8720     1.0680 ca         1 UIQ      -0.094500
      9 C5          -2.5330    -0.5890     0.8510 ca         1 UIQ      -0.080500
     10 C10          0.8730    -2.4520     0.8510 c5         1 UIQ       0.242800
     11 N11          1.4800    -1.7720     2.0380 n3         1 UIQ      -0.699600
     12 C12          2.4990    -2.6490     2.6690 c5         1 UIQ       0.156800
     13 C13          3.2460    -1.6040     3.5320 c5         1 UIQ      -0.081400
     14 C14          3.3400    -0.3600     2.5880 c5         1 UIQ      -0.076400
     15 C15          2.2300    -0.6150     1.5160 c5         1 UIQ       0.160500
     16 C16          2.8980    -1.1640     0.2140 c5         1 UIQ      -0.107700
     17 C17          3.0700     0.0700    -0.7320 c5         1 UIQ       0.124700
     18 N19          1.7490     0.1220    -1.3890 n          1 UIQ      -0.415800
     19 C20          1.0110    -1.0620    -1.3710 c          1 UIQ       0.578000
     20 O21          0.0830    -1.3050    -2.1310 o          1 UIQ      -0.545000
     21 C22          1.7370    -2.0040    -0.4000 c5         1 UIQ      -0.173700
     22 C23          1.2160     1.3150    -2.0650 c3         1 UIQ       0.156300
     23 C24          0.2110     2.0520    -1.1930 ca         1 UIQ      -0.110300
     24 C32          0.6670     2.9190    -0.1670 ca         1 UIQ      -0.103000
     25 C31         -0.2530     3.5900     0.6670 ca         1 UIQ      -0.102000
     26 C30         -1.6180     3.3790     0.4420 ca         1 UIQ       0.058100
     27 O29         -2.6350     3.9260     1.1550 os         1 UIQ      -0.343100
     28 C28         -3.8210     3.4820     0.4070 c5         1 UIQ       0.373600
     29 O27         -3.4180     2.4550    -0.5690 os         1 UIQ      -0.358100
     30 C26         -2.0630     2.5430    -0.5420 ca         1 UIQ       0.044100
     31 C25         -1.1770     1.8520    -1.3780 ca         1 UIQ      -0.072000
     32 C18          4.2410    -0.0310    -1.7580 c3         1 UIQ      -0.074700
     33 C41          5.6270     0.0500    -1.0740 c3         1 UIQ      -0.088600
     34 C42          4.1690    -1.2570    -2.7040 c3         1 UIQ      -0.088600
     35 HN1         -6.6210    -1.7120    -0.1520 hn         1 UIQ       0.366400
     36 HN21        -6.0450     0.2180    -0.6850 hn         1 UIQ       0.463500
     37 HN22        -4.4610     0.7200    -0.2840 hn         1 UIQ       0.463500
     38 H9          -3.4360    -3.5020    -0.6870 ha         1 UIQ       0.125500
     39 H8          -1.0560    -3.9930    -0.3030 ha         1 UIQ       0.117000
     40 H6          -0.5650    -0.1300     1.5750 ha         1 UIQ       0.117000
     41 H5          -2.9310     0.3560     1.2130 ha         1 UIQ       0.125500
     42 H10          0.9400    -3.5440     0.9710 h1         1 UIQ       0.062700
     43 H121         3.1700    -3.1340     1.9470 h1         1 UIQ       0.039700
     44 H122         2.0430    -3.4390     3.2830 h1         1 UIQ       0.039700
     45 H131         4.2290    -1.9600     3.8600 hc         1 UIQ       0.051700
     46 H132         2.6700    -1.3660     4.4340 hc         1 UIQ       0.051700
     47 H141         4.3360    -0.2540     2.1440 hc         1 UIQ       0.047700
     48 H142         3.1470     0.5650     3.1440 hc         1 UIQ       0.047700
     49 H15          1.5910     0.2620     1.3370 h1         1 UIQ       0.078700
     50 H16          3.8160    -1.7390     0.3810 hc         1 UIQ       0.072700
     51 H17          3.2360     0.9870    -0.1490 h1         1 UIQ       0.061700
     52 H22          2.0710    -2.8780    -0.9680 hc         1 UIQ       0.084700
     53 H231         2.0460     1.9920    -2.3080 h1         1 UIQ       0.064700
     54 H232         0.7490     1.0240    -3.0150 h1         1 UIQ       0.064700
     55 H32          1.7340     3.0650    -0.0130 ha         1 UIQ       0.115000
     56 H31          0.0860     4.2510     1.4600 ha         1 UIQ       0.134000
     57 H281        -4.5680     3.0730     1.0970 h2         1 UIQ       0.065700
     58 H282        -4.2380     4.3390    -0.1350 h2         1 UIQ       0.065700
     59 H25         -1.5530     1.1770    -2.1430 ha         1 UIQ       0.154000
     60 H18          4.1770     0.8540    -2.4030 hc         1 UIQ       0.049700
     61 H411         6.4250     0.1150    -1.8230 hc         1 UIQ       0.036367
     62 H412         5.6920     0.9400    -0.4360 hc         1 UIQ       0.036367
     63 H413         5.8170    -0.8320    -0.4520 hc         1 UIQ       0.036367
     64 H421         4.2590    -2.1950    -2.1440 hc         1 UIQ       0.036367
     65 H422         3.2230    -1.2740    -3.2580 hc         1 UIQ       0.036367
     66 H423         4.9820    -1.2240    -3.4390 hc         1 UIQ       0.036367
@<TRIPOS>BOND
     1     1     2 2   
     2     1    35 1   
     3     2     3 1   
     4     2     4 1   
     5     3    36 1   
     6     3    37 1   
     7     4     5 ar  
     8     4     9 ar  
     9     5     6 ar  
    10     5    38 1   
    11     6     7 ar  
    12     6    39 1   
    13     7     8 ar  
    14     7    10 1   
    15     8     9 ar  
    16     8    40 1   
    17     9    41 1   
    18    10    11 1   
    19    10    21 1   
    20    10    42 1   
    21    11    12 1   
    22    11    15 1   
    23    12    13 1   
    24    12    43 1   
    25    12    44 1   
    26    13    14 1   
    27    13    45 1   
    28    13    46 1   
    29    14    15 1   
    30    14    47 1   
    31    14    48 1   
    32    15    16 1   
    33    15    49 1   
    34    16    17 1   
    35    16    21 1   
    36    16    50 1   
    37    17    18 1   
    38    17    32 1   
    39    17    51 1   
    40    18    19 1   
    41    18    22 1   
    42    19    20 2   
    43    19    21 1   
    44    21    52 1   
    45    22    23 1   
    46    22    53 1   
    47    22    54 1   
    48    23    24 ar  
    49    23    31 ar  
    50    24    25 ar  
    51    24    55 1   
    52    25    26 ar  
    53    25    56 1   
    54    26    27 1   
    55    26    30 ar  
    56    27    28 1   
    57    28    29 1   
    58    28    57 1   
    59    28    58 1   
    60    29    30 1   
    61    30    31 ar  
    62    31    59 1   
    63    32    33 1   
    64    32    34 1   
    65    32    60 1   
    66    33    61 1   
    67    33    62 1   
    68    33    63 1   
    69    34    64 1   
    70    34    65 1   
    71    34    66 1   
@<TRIPOS>SUBSTRUCTURE
     1 UIQ         1 TEMP              0 ****  ****    0 ROOT
