@<TRIPOS>MOLECULE
UIQ
   66    71     1     0     0
SMALL
abcg2


@<TRIPOS>ATOM
      1 N1          -5.6560    -2.3770    -0.2050 n2         1 UIQ      -0.834100
      2 C3          -4.8640    -1.3990     0.0230 ce         1 UIQ       0.663800
      3 N2          -5.2270    -0.0880     0.1580 nv         1 UIQ      -1.080200
      4 C4          -3.4160    -1.6760     0.2150 ca         1 UIQ      -0.140900
      5 C9          -2.8450    -2.8140    -0.3560 ca         1 UIQ      -0.080500
      6 C8          -1.4980    -3.0810    -0.1970 ca         1 UIQ      -0.094500
      7 C7          -0.6780    -2.2340     0.5450 ca         1 UIQ      -0.063300
      8 C6          -1.2550    -1.1200     1.1400 ca         1 UIQ      -0.094500
      9 C5          -2.6030    -0.8400     0.9740 ca         1 UIQ      -0.080500
     10 C10          0.7920    -2.5470     0.6960 c5         1 UIQ       0.242800
     11 N11          1.3530    -1.9740     1.9070 n3         1 UIQ      -0.699600
     12 C12          2.2980    -2.8230     2.6240 c5         1 UIQ       0.156800
     13 C13          3.0300    -1.8330     3.5200 c5         1 UIQ      -0.081400
     14 C14          3.0990    -0.5440     2.6780 c5         1 UIQ      -0.076400
     15 C15          2.0960    -0.7740     1.5410 c5         1 UIQ       0.160500
     16 C16          2.7180    -1.0900     0.1720 c5         1 UIQ      -0.107700
     17 C17          2.8290     0.1380    -0.7400 c5         1 UIQ       0.124700
     18 N19          1.6370     0.0320    -1.5600 n          1 UIQ      -0.415800
     19 C20          1.0240    -1.1690    -1.5300 c          1 UIQ       0.578000
     20 O21          0.0940    -1.5010    -2.2450 o          1 UIQ      -0.545000
     21 C22          1.7010    -2.0260    -0.4810 c5         1 UIQ      -0.173700
     22 C23          1.1570     1.1420    -2.3530 c3         1 UIQ       0.156300
     23 C24          0.3180     2.0900    -1.5340 ca         1 UIQ      -0.110300
     24 C32          0.8330     3.3100    -1.1220 ca         1 UIQ      -0.103000
     25 C31          0.0910     4.2020    -0.3350 ca         1 UIQ      -0.102000
     26 C30         -1.1770     3.8110     0.0090 ca         1 UIQ       0.058100
     27 O29         -2.1110     4.4840     0.7270 os         1 UIQ      -0.343100
     28 C28         -3.1710     3.5650     0.9510 c5         1 UIQ       0.373600
     29 O27         -2.9790     2.4880     0.0430 os         1 UIQ      -0.358100
     30 C26         -1.7000     2.5930    -0.4020 ca         1 UIQ       0.044100
     31 C25         -0.9840     1.7090    -1.1630 ca         1 UIQ      -0.072000
     32 C18          4.1210     0.2040    -1.5680 c3         1 UIQ      -0.074700
     33 C41          5.3120     0.4510    -0.6480 c3         1 UIQ      -0.088600
     34 C42          4.3340    -1.0280    -2.4380 c3         1 UIQ      -0.088600
     35 HN1         -6.6080    -2.0520    -0.3490 hn         1 UIQ       0.366400
     36 HN21        -6.1670     0.1610    -0.1070 hn         1 UIQ       0.463500
     37 HN22        -4.5460     0.6220    -0.0600 hn         1 UIQ       0.463500
     38 H9          -3.4670    -3.4860    -0.9320 ha         1 UIQ       0.125500
     39 H8          -1.0780    -3.9680    -0.6560 ha         1 UIQ       0.117000
     40 H6          -0.6560    -0.4640     1.7560 ha         1 UIQ       0.117000
     41 H5          -3.0180     0.0270     1.4710 ha         1 UIQ       0.125500
     42 H10          0.8880    -3.6350     0.7420 h1         1 UIQ       0.062700
     43 H121         3.0060    -3.3290     1.9500 h1         1 UIQ       0.039700
     44 H122         1.7750    -3.6000     3.1860 h1         1 UIQ       0.039700
     45 H131         4.0120    -2.2000     3.8170 hc         1 UIQ       0.051700
     46 H132         2.4560    -1.6590     4.4310 hc         1 UIQ       0.051700
     47 H141         4.1000    -0.3720     2.2810 hc         1 UIQ       0.047700
     48 H142         2.8430     0.3320     3.2720 hc         1 UIQ       0.047700
     49 H15          1.4110     0.0750     1.4260 h1         1 UIQ       0.078700
     50 H16          3.6880    -1.5730     0.3050 hc         1 UIQ       0.072700
     51 H17          2.7740     1.0560    -0.1410 h1         1 UIQ       0.061700
     52 H22          2.1610    -2.8790    -0.9840 hc         1 UIQ       0.084700
     53 H231         2.0090     1.6730    -2.7790 h1         1 UIQ       0.064700
     54 H232         0.5820     0.7440    -3.1890 h1         1 UIQ       0.064700
     55 H32          1.8380     3.5860    -1.4160 ha         1 UIQ       0.115000
     56 H31          0.5010     5.1520    -0.0200 ha         1 UIQ       0.134000
     57 H281        -3.1310     3.1930     1.9810 h2         1 UIQ       0.065700
     58 H282        -4.1280     4.0480     0.7540 h2         1 UIQ       0.065700
     59 H25         -1.4010     0.7580    -1.4710 ha         1 UIQ       0.154000
     60 H18          4.0420     1.0730    -2.2320 hc         1 UIQ       0.049700
     61 H411         6.2290     0.5740    -1.2260 hc         1 UIQ       0.036367
     62 H412         5.1740     1.3530    -0.0480 hc         1 UIQ       0.036367
     63 H413         5.4710    -0.3820     0.0410 hc         1 UIQ       0.036367
     64 H421         4.4040    -1.9400    -1.8410 hc         1 UIQ       0.036367
     65 H422         3.5300    -1.1630    -3.1630 hc         1 UIQ       0.036367
     66 H423         5.2640    -0.9400    -3.0030 hc         1 UIQ       0.036367
@<TRIPOS>BOND
     1     1     2 2   
     2     1    35 1   
     3     2     3 1   
     4     2     4 1   
     5     3    36 1   
     6     3    37 1   
     7     4     5 ar  
     8     4     9 ar  
     9     5     6 ar  
    10     5    38 1   
    11     6     7 ar  
    12     6    39 1   
    13     7     8 ar  
    14     7    10 1   
    15     8     9 ar  
    16     8    40 1   
    17     9    41 1   
    18    10    11 1   
    19    10    21 1   
    20    10    42 1   
    21    11    12 1   
    22    11    15 1   
    23    12    13 1   
    24    12    43 1   
    25    12    44 1   
    26    13    14 1   
    27    13    45 1   
    28    13    46 1   
    29    14    15 1   
    30    14    47 1   
    31    14    48 1   
    32    15    16 1   
    33    15    49 1   
    34    16    17 1   
    35    16    21 1   
    36    16    50 1   
    37    17    18 1   
    38    17    32 1   
    39    17    51 1   
    40    18    19 1   
    41    18    22 1   
    42    19    20 2   
    43    19    21 1   
    44    21    52 1   
    45    22    23 1   
    46    22    53 1   
    47    22    54 1   
    48    23    24 ar  
    49    23    31 ar  
    50    24    25 ar  
    51    24    55 1   
    52    25    26 ar  
    53    25    56 1   
    54    26    27 1   
    55    26    30 ar  
    56    27    28 1   
    57    28    29 1   
    58    28    57 1   
    59    28    58 1   
    60    29    30 1   
    61    30    31 ar  
    62    31    59 1   
    63    32    33 1   
    64    32    34 1   
    65    32    60 1   
    66    33    61 1   
    67    33    62 1   
    68    33    63 1   
    69    34    64 1   
    70    34    65 1   
    71    34    66 1   
@<TRIPOS>SUBSTRUCTURE
     1 UIQ         1 TEMP              0 ****  ****    0 ROOT
