@<TRIPOS>MOLECULE
UIR
   64    70     1     0     0
SMALL
bcc


@<TRIPOS>ATOM
      1 N1          -6.2470     7.9630    20.2650 nv         1 UIR      -0.920800
      2 C3          -5.0060     8.4460    20.5590 ce         1 UIR       0.658800
      3 C4          -3.9580     7.4070    20.7570 ca         1 UIR      -0.191900
      4 C9          -4.2630     6.1640    21.3080 ca         1 UIR      -0.108500
      5 C8          -3.2720     5.2150    21.5050 ca         1 UIR      -0.108000
      6 C7          -1.9540     5.4810    21.1490 ca         1 UIR      -0.068300
      7 C10         -0.8570     4.4790    21.4030 c5         1 UIR       0.227800
      8 N11         -1.3530     3.1070    21.3430 n3         1 UIR      -0.697600
      9 C12         -1.2530     2.5070    20.0210 c5         1 UIR       0.146800
     10 C13          0.2040     2.0070    19.8800 c5         1 UIR      -0.111400
     11 C14          0.7260     1.9250    21.3280 c5         1 UIR      -0.104400
     12 C15         -0.4950     2.2930    22.1920 c5         1 UIR       0.157500
     13 C16         -0.2220     3.1830    23.3860 c5         1 UIR      -0.070700
     14 C18         -1.0510     2.3850    25.6330 cx         1 UIR      -0.145700
     15 C17         -1.3730     3.1990    24.4110 c5         1 UIR       0.154700
     16 C42         -2.1340     1.7350    26.4430 cx         1 UIR      -0.126900
     17 C41         -1.2510     0.9010    25.5690 cx         1 UIR      -0.126900
     18 N19         -1.5610     4.6190    24.6810 n          1 UIR      -0.474800
     19 C20         -0.9500     5.4380    23.8040 c          1 UIR       0.716500
     20 O21         -1.0160     6.6540    23.8140 o          1 UIR      -0.618500
     21 C22         -0.1850     4.5980    22.8060 c5         1 UIR      -0.157700
     22 C23         -2.5270     5.1290    25.6350 c3         1 UIR       0.166300
     23 C24         -1.9070     5.8160    26.8280 ca         1 UIR      -0.105300
     24 C25         -1.3890     5.0460    27.8840 ca         1 UIR      -0.104000
     25 C26         -0.8290     5.7170    28.9410 ca         1 UIR       0.039100
     26 O27         -0.2910     5.2070    30.0780 os         1 UIR      -0.324900
     27 C28          0.3310     6.3020    30.7360 c5         1 UIR       0.326200
     28 O29         -0.2000     7.4860    30.1570 os         1 UIR      -0.320900
     29 C30         -0.7740     7.1010    28.9900 ca         1 UIR       0.057100
     30 C31         -1.2830     7.8750    27.9780 ca         1 UIR      -0.117000
     31 C32         -1.8500     7.2010    26.8900 ca         1 UIR      -0.095000
     32 C6          -1.6540     6.7160    20.5870 ca         1 UIR      -0.108000
     33 C5          -2.6380     7.6710    20.3960 ca         1 UIR      -0.108500
     34 N2          -4.8160     9.7040    20.6860 n2         1 UIR      -0.845100
     35 HN11        -6.3100     7.0980    19.7550 hn         1 UIR       0.410800
     36 HN12        -6.9340     8.6500    19.9960 hn         1 UIR       0.410800
     37 H9          -5.2790     5.9340    21.6030 ha         1 UIR       0.137000
     38 H8          -3.5250     4.2520    21.9270 ha         1 UIR       0.139000
     39 H10         -0.0700     4.6560    20.6550 h1         1 UIR       0.044700
     40 H121        -1.5410     3.2190    19.2470 h1         1 UIR       0.059700
     41 H122        -1.9500     1.6670    19.9600 h1         1 UIR       0.059700
     42 H131         0.8020     2.7020    19.2910 hc         1 UIR       0.048700
     43 H132         0.2410     1.0450    19.3680 hc         1 UIR       0.048700
     44 H141         1.5390     2.6370    21.4890 hc         1 UIR       0.050200
     45 H142         1.1140     0.9380    21.5830 hc         1 UIR       0.050200
     46 H15         -1.0270     1.3800    22.4810 h1         1 UIR       0.075700
     47 H16          0.7140     2.9190    23.8820 hc         1 UIR       0.075700
     48 H18         -0.1730     2.7260    26.1740 hc         1 UIR       0.090700
     49 H17         -2.2880     2.7990    23.9500 h1         1 UIR       0.061700
     50 H421        -3.1620     1.8810    26.1320 hc         1 UIR       0.073950
     51 H422        -2.0010     1.6710    27.5160 hc         1 UIR       0.073950
     52 H411        -0.5090     0.2690    26.0400 hc         1 UIR       0.073950
     53 H412        -1.6840     0.4830    24.6690 hc         1 UIR       0.073950
     54 H22          0.8220     5.0000    22.6940 hc         1 UIR       0.087700
     55 H231        -3.1350     4.2870    25.9660 h1         1 UIR       0.056700
     56 H232        -3.1990     5.8210    25.1230 h1         1 UIR       0.056700
     57 H25         -1.4420     3.9660    27.8670 ha         1 UIR       0.148000
     58 H281         1.4150     6.2650    30.5760 h2         1 UIR       0.062700
     59 H282         0.1000     6.2750    31.8000 h2         1 UIR       0.062700
     60 H31         -1.2520     8.9560    28.0150 ha         1 UIR       0.153000
     61 H32         -2.2500     7.7810    26.0690 ha         1 UIR       0.153000
     62 H6          -0.6350     6.9370    20.2910 ha         1 UIR       0.139000
     63 H5          -2.3760     8.6190    19.9430 ha         1 UIR       0.137000
     64 HN2         -3.8740     9.8930    21.0080 hn         1 UIR       0.391400
@<TRIPOS>BOND
     1     1     2 1   
     2     1    35 1   
     3     1    36 1   
     4     2     3 1   
     5     2    34 2   
     6     3     4 ar  
     7     3    33 ar  
     8     4     5 ar  
     9     4    37 1   
    10     5     6 ar  
    11     5    38 1   
    12     6     7 1   
    13     6    32 ar  
    14     7     8 1   
    15     7    21 1   
    16     7    39 1   
    17     8     9 1   
    18     8    12 1   
    19     9    10 1   
    20     9    40 1   
    21     9    41 1   
    22    10    11 1   
    23    10    42 1   
    24    10    43 1   
    25    11    12 1   
    26    11    44 1   
    27    11    45 1   
    28    12    13 1   
    29    12    46 1   
    30    13    15 1   
    31    13    21 1   
    32    13    47 1   
    33    14    15 1   
    34    14    16 1   
    35    14    17 1   
    36    14    48 1   
    37    15    18 1   
    38    15    49 1   
    39    16    17 1   
    40    16    50 1   
    41    16    51 1   
    42    17    52 1   
    43    17    53 1   
    44    18    19 1   
    45    18    22 1   
    46    19    20 2   
    47    19    21 1   
    48    21    54 1   
    49    22    23 1   
    50    22    55 1   
    51    22    56 1   
    52    23    24 ar  
    53    23    31 ar  
    54    24    25 ar  
    55    24    57 1   
    56    25    26 1   
    57    25    29 ar  
    58    26    27 1   
    59    27    28 1   
    60    27    58 1   
    61    27    59 1   
    62    28    29 1   
    63    29    30 ar  
    64    30    31 ar  
    65    30    60 1   
    66    31    61 1   
    67    32    33 ar  
    68    32    62 1   
    69    33    63 1   
    70    34    64 1   
@<TRIPOS>SUBSTRUCTURE
     1 UIR         1 TEMP              0 ****  ****    0 ROOT
