@<TRIPOS>MOLECULE
UIR
   64    70     1     0     0
SMALL
No Charge or Current Charge


@<TRIPOS>ATOM
      1 N1          -6.1800     8.2840    20.6380 nv         1 UIR      -1.031200
      2 C3          -4.8840     8.6240    20.7550 ce         1 UIR       0.658800
      3 C4          -3.8780     7.5230    20.8800 ca         1 UIR      -0.191900
      4 C9          -4.2070     6.3110    21.5290 ca         1 UIR      -0.090500
      5 C8          -3.2510     5.2930    21.6800 ca         1 UIR      -0.090000
      6 C7          -1.9340     5.4610    21.2030 ca         1 UIR      -0.068300
      7 C10         -0.8650     4.3690    21.3660 c5         1 UIR       0.227800
      8 N11         -1.4470     2.9930    21.3930 n3         1 UIR      -0.697600
      9 C12         -1.4640     2.4020    20.0310 c5         1 UIR       0.146800
     10 C13          0.0110     1.9400    19.7730 c5         1 UIR      -0.111400
     11 C14          0.7020     1.9710    21.1750 c5         1 UIR      -0.104400
     12 C15         -0.5100     2.1460    22.1410 c5         1 UIR       0.157500
     13 C16         -0.1220     3.0590    23.3420 c5         1 UIR      -0.070700
     14 C18         -0.8550     2.4010    25.6340 cx         1 UIR      -0.145700
     15 C17         -1.3580     3.0470    24.3220 c5         1 UIR       0.154700
     16 C42         -1.9110     1.6150    26.3840 cx         1 UIR      -0.126900
     17 C41         -0.8440     0.8880    25.5970 cx         1 UIR      -0.126900
     18 N19         -1.5930     4.4810    24.5970 n          1 UIR      -0.407800
     19 C20         -0.9000     5.3630    23.7650 c          1 UIR       0.574000
     20 O21         -0.8180     6.5720    23.9370 o          1 UIR      -0.543000
     21 C22         -0.1320     4.5090    22.7560 c5         1 UIR      -0.157700
     22 C23         -2.5820     4.9950    25.5700 c3         1 UIR       0.166300
     23 C24         -1.9940     5.7600    26.7550 ca         1 UIR      -0.105300
     24 C25         -1.4840     5.0640    27.8760 ca         1 UIR      -0.086000
     25 C26         -0.9610     5.8080    28.9420 ca         1 UIR       0.039100
     26 O27         -0.4440     5.2970    30.0880 os         1 UIR      -0.348100
     27 C28          0.0100     6.5020    30.8030 c5         1 UIR       0.372600
     28 O29         -0.4140     7.6990    30.0590 os         1 UIR      -0.344100
     29 C30         -0.9450     7.1730    28.9260 ca         1 UIR       0.057100
     30 C31         -1.4540     7.9000    27.8440 ca         1 UIR      -0.099000
     31 C32         -1.9830     7.1790    26.7520 ca         1 UIR      -0.077000
     32 C6          -1.5990     6.6740    20.5720 ca         1 UIR      -0.090000
     33 C5          -2.5530     7.6950    20.4180 ca         1 UIR      -0.090500
     34 N2          -4.5710     9.8440    20.6040 n2         1 UIR      -0.845100
     35 HN11        -6.3470     7.3400    20.3130 hn         1 UIR       0.466000
     36 HN12        -6.7620     9.0050    20.2310 hn         1 UIR       0.466000
     37 H9          -5.2050     6.1520    21.9320 ha         1 UIR       0.119000
     38 H8          -3.5340     4.3720    22.1840 ha         1 UIR       0.121000
     39 H10         -0.1220     4.4780    20.5620 h1         1 UIR       0.044700
     40 H121        -1.8220     3.1070    19.2670 h1         1 UIR       0.059700
     41 H122        -2.1360     1.5330    20.0070 h1         1 UIR       0.059700
     42 H131         0.5210     2.6070    19.0690 hc         1 UIR       0.048700
     43 H132         0.0330     0.9370    19.3310 hc         1 UIR       0.048700
     44 H141         1.4300     2.7890    21.2370 hc         1 UIR       0.050200
     45 H142         1.2540     1.0480    21.3850 hc         1 UIR       0.050200
     46 H15         -0.9450     1.1790    22.4330 h1         1 UIR       0.075700
     47 H16          0.8300     2.7930    23.8180 hc         1 UIR       0.075700
     48 H18         -0.0700     2.8910    26.2060 hc         1 UIR       0.090700
     49 H17         -2.2550     2.5740    23.8970 h1         1 UIR       0.061700
     50 H421        -2.9250     1.6020    25.9920 hc         1 UIR       0.073950
     51 H422        -1.8450     1.5780    27.4680 hc         1 UIR       0.073950
     52 H411        -0.0650     0.3750    26.1570 hc         1 UIR       0.073950
     53 H412        -1.1500     0.3820    24.6850 hc         1 UIR       0.073950
     54 H22          0.8600     4.9460    22.6090 hc         1 UIR       0.087700
     55 H231        -3.1740     4.1530    25.9510 h1         1 UIR       0.056700
     56 H232        -3.2820     5.6490    25.0320 h1         1 UIR       0.056700
     57 H25         -1.4970     3.9810    27.9250 ha         1 UIR       0.130000
     58 H281         1.1040     6.4890    30.8660 h2         1 UIR       0.062700
     59 H282        -0.4240     6.5190    31.8100 h2         1 UIR       0.062700
     60 H31         -1.4420     8.9870    27.8480 ha         1 UIR       0.135000
     61 H32         -2.3840     7.7240    25.9000 ha         1 UIR       0.135000
     62 H6          -0.5880     6.8300    20.2020 ha         1 UIR       0.121000
     63 H5          -2.2530     8.6150    19.9210 ha         1 UIR       0.119000
     64 HN2         -3.5590     9.9270    20.7660 hn         1 UIR       0.391400
@<TRIPOS>BOND
     1     1     2 1   
     2     1    35 1   
     3     1    36 1   
     4     2     3 1   
     5     2    34 2   
     6     3     4 ar  
     7     3    33 ar  
     8     4     5 ar  
     9     4    37 1   
    10     5     6 ar  
    11     5    38 1   
    12     6     7 1   
    13     6    32 ar  
    14     7     8 1   
    15     7    21 1   
    16     7    39 1   
    17     8     9 1   
    18     8    12 1   
    19     9    10 1   
    20     9    40 1   
    21     9    41 1   
    22    10    11 1   
    23    10    42 1   
    24    10    43 1   
    25    11    12 1   
    26    11    44 1   
    27    11    45 1   
    28    12    13 1   
    29    12    46 1   
    30    13    15 1   
    31    13    21 1   
    32    13    47 1   
    33    14    15 1   
    34    14    16 1   
    35    14    17 1   
    36    14    48 1   
    37    15    18 1   
    38    15    49 1   
    39    16    17 1   
    40    16    50 1   
    41    16    51 1   
    42    17    52 1   
    43    17    53 1   
    44    18    19 1   
    45    18    22 1   
    46    19    20 2   
    47    19    21 1   
    48    21    54 1   
    49    22    23 1   
    50    22    55 1   
    51    22    56 1   
    52    23    24 ar  
    53    23    31 ar  
    54    24    25 ar  
    55    24    57 1   
    56    25    26 1   
    57    25    29 ar  
    58    26    27 1   
    59    27    28 1   
    60    27    58 1   
    61    27    59 1   
    62    28    29 1   
    63    29    30 ar  
    64    30    31 ar  
    65    30    60 1   
    66    31    61 1   
    67    32    33 ar  
    68    32    62 1   
    69    33    63 1   
    70    34    64 1   
@<TRIPOS>SUBSTRUCTURE
     1 UIR         1 TEMP              0 ****  ****    0 ROOT
