@<TRIPOS>MOLECULE
UIS
   33    33     1     0     0
SMALL
abcg2


@<TRIPOS>ATOM
      1 C10         12.4130    90.2750    34.5730 ca         1 UIS       0.021000
      2 C15         12.5490    91.6550    34.6800 ca         1 UIS      -0.222000
      3 C01         15.7060    94.4260    33.1950 c3         1 UIS      -0.120600
      4 C02         14.2120    94.5020    32.8990 c3         1 UIS       0.229300
      5 C04         12.7970    94.4750    34.9370 c3         1 UIS       0.229300
      6 C05         13.6180    94.4240    36.2220 c3         1 UIS      -0.120600
      7 C06         13.2780    92.3910    33.7250 ca         1 UIS       0.371000
      8 C07         13.8830    91.6810    32.6700 ca         1 UIS      -0.222000
      9 C08         13.7350    90.3080    32.5810 ca         1 UIS      -0.040000
     10 C09         13.0090    89.5890    33.5120 ca         1 UIS      -0.227000
     11 C12         11.0900    89.8520    36.6540 c          1 UIS       0.609100
     12 C14         10.4530    88.7040    37.3980 c3         1 UIS      -0.183100
     13 N03         13.3690    93.7580    33.8140 nh         1 UIS      -0.831400
     14 N11         11.6920    89.4980    35.4890 ns         1 UIS      -0.148000
     15 O13         11.0660    90.9870    37.0960 o          1 UIS      -0.587100
     16 H1          12.0880    92.1550    35.5110 ha         1 UIS       0.147000
     17 H2          16.2650    94.9800    32.4400 hc         1 UIS       0.041367
     18 H3          15.9400    94.8580    34.1680 hc         1 UIS       0.041367
     19 H4          16.0680    93.3980    33.1880 hc         1 UIS       0.041367
     20 H5          13.8900    95.5440    32.9350 h1         1 UIS       0.046950
     21 H6          14.0200    94.1750    31.8740 h1         1 UIS       0.046950
     22 H7          12.6770    95.5140    34.6310 h1         1 UIS       0.046950
     23 H8          11.7840    94.1110    35.1270 h1         1 UIS       0.046950
     24 H9          13.0970    94.9560    37.0190 hc         1 UIS       0.041367
     25 H10         13.7840    93.4000    36.5590 hc         1 UIS       0.041367
     26 H11         14.5920    94.8950    36.0880 hc         1 UIS       0.041367
     27 H12         14.4680    92.1850    31.9150 ha         1 UIS       0.113000
     28 H13         14.2070    89.7850    31.7590 ha         1 UIS       0.106000
     29 H14         12.9110    88.5130    33.4250 ha         1 UIS       0.107000
     30 H15          9.4710    89.0060    37.7590 hc         1 UIS       0.062033
     31 H16         10.3420    87.7970    36.8060 hc         1 UIS       0.062033
     32 H17         11.0610    88.4650    38.2720 hc         1 UIS       0.062033
     33 H18         11.6440    88.5180    35.2520 hn         1 UIS       0.148000
@<TRIPOS>BOND
     1     1     2 ar  
     2     1    10 ar  
     3     1    14 1   
     4     2     7 ar  
     5     2    16 1   
     6     3     4 1   
     7     3    17 1   
     8     3    18 1   
     9     3    19 1   
    10     4    13 1   
    11     4    20 1   
    12     4    21 1   
    13     5     6 1   
    14     5    13 1   
    15     5    22 1   
    16     5    23 1   
    17     6    24 1   
    18     6    25 1   
    19     6    26 1   
    20     7     8 ar  
    21     7    13 1   
    22     8     9 ar  
    23     8    27 1   
    24     9    10 ar  
    25     9    28 1   
    26    10    29 1   
    27    11    12 1   
    28    11    14 1   
    29    11    15 2   
    30    12    30 1   
    31    12    31 1   
    32    12    32 1   
    33    14    33 1   
@<TRIPOS>SUBSTRUCTURE
     1 UIS         1 TEMP              0 ****  ****    0 ROOT
