@<TRIPOS>MOLECULE
UIS
   33    33     1     0     0
SMALL
No Charge or Current Charge


@<TRIPOS>ATOM
      1 C10         12.4030    90.2710    34.5270 ca         1 UIS       0.021000
      2 C15         12.6670    91.6480    34.6870 ca         1 UIS      -0.222000
      3 C01         16.0020    93.8390    33.7240 c3         1 UIS      -0.120600
      4 C02         14.6740    94.4390    33.2270 c3         1 UIS       0.229300
      5 C04         12.5350    94.6600    34.5600 c3         1 UIS       0.229300
      6 C05         13.0540    95.0920    35.9440 c3         1 UIS      -0.120600
      7 C06         13.2180    92.4100    33.6400 ca         1 UIS       0.371000
      8 C07         13.5090    91.7760    32.4180 ca         1 UIS      -0.222000
      9 C08         13.2560    90.4070    32.2460 ca         1 UIS      -0.040000
     10 C09         12.7070    89.6610    33.2990 ca         1 UIS      -0.227000
     11 C12         11.3580    89.7330    36.8130 c          1 UIS       0.609100
     12 C14         10.8810    88.5030    37.5810 c3         1 UIS      -0.183100
     13 N03         13.4780    93.7920    33.8170 nh         1 UIS      -0.831400
     14 N11         11.8540    89.4490    35.5480 ns         1 UIS      -0.148000
     15 O13         11.2880    90.8540    37.3020 o          1 UIS      -0.587100
     16 H1          12.4660    92.1390    35.6290 ha         1 UIS       0.147000
     17 H2          16.8490    94.3760    33.2820 hc         1 UIS       0.041367
     18 H3          16.0750    93.9180    34.8150 hc         1 UIS       0.041367
     19 H4          16.0830    92.7820    33.4450 hc         1 UIS       0.041367
     20 H5          14.6780    95.5110    33.4710 h1         1 UIS       0.046950
     21 H6          14.6370    94.3760    32.1310 h1         1 UIS       0.046950
     22 H7          12.3220    95.5610    33.9670 h1         1 UIS       0.046950
     23 H8          11.5730    94.1460    34.6900 h1         1 UIS       0.046950
     24 H9          12.3060    95.7110    36.4520 hc         1 UIS       0.041367
     25 H10         13.2610    94.2180    36.5730 hc         1 UIS       0.041367
     26 H11         13.9760    95.6770    35.8500 hc         1 UIS       0.041367
     27 H12         13.9240    92.3410    31.5910 ha         1 UIS       0.113000
     28 H13         13.4840    89.9260    31.2970 ha         1 UIS       0.106000
     29 H14         12.5150    88.6000    33.1550 ha         1 UIS       0.107000
     30 H15         10.4910    88.7490    38.5750 hc         1 UIS       0.062033
     31 H16         10.1390    87.9690    36.9760 hc         1 UIS       0.062033
     32 H17         11.7000    87.7770    37.6370 hc         1 UIS       0.062033
     33 H18         11.8200    88.4680    35.3030 hn         1 UIS       0.148000
@<TRIPOS>BOND
     1     1     2 ar  
     2     1    10 ar  
     3     1    14 1   
     4     2     7 ar  
     5     2    16 1   
     6     3     4 1   
     7     3    17 1   
     8     3    18 1   
     9     3    19 1   
    10     4    13 1   
    11     4    20 1   
    12     4    21 1   
    13     5     6 1   
    14     5    13 1   
    15     5    22 1   
    16     5    23 1   
    17     6    24 1   
    18     6    25 1   
    19     6    26 1   
    20     7     8 ar  
    21     7    13 1   
    22     8     9 ar  
    23     8    27 1   
    24     9    10 ar  
    25     9    28 1   
    26    10    29 1   
    27    11    12 1   
    28    11    14 1   
    29    11    15 2   
    30    12    30 1   
    31    12    31 1   
    32    12    32 1   
    33    14    33 1   
@<TRIPOS>SUBSTRUCTURE
     1 UIS         1 TEMP              0 ****  ****    0 ROOT
