@<TRIPOS>MOLECULE
UIT
   26    25     1     0     0
SMALL
abcg2


@<TRIPOS>ATOM
      1 CAA         42.1590    30.3060    31.2400 c          1 UIT       0.685000
      2 CAB         42.1830    29.9600    29.7320 c3         1 UIT       0.023300
      3 CAC         41.5010    28.6190    29.4580 c3         1 UIT      -0.069400
      4 CAD         41.5080    28.1950    27.9880 c3         1 UIT      -0.064400
      5 CAE         42.8980    27.9270    27.4130 c3         1 UIT      -0.074400
      6 CAF         42.8610    27.4250    25.9710 c3         1 UIT      -0.076400
      7 CAG         44.2440    27.1730    25.3750 c3         1 UIT      -0.077400
      8 CAH         44.1920    26.6800    23.9300 c3         1 UIT      -0.087100
      9 OAI         41.5540    31.0120    28.9980 oh         1 UIT      -0.720000
     10 OAJ         42.7570    29.5360    32.0240 o          1 UIT      -0.726500
     11 OAK         41.5250    31.3550    31.5440 o          1 UIT      -0.726500
     12 H1          43.2340    29.9020    29.4300 h1         1 UIT       0.028700
     13 H2          40.4660    28.6880    29.8110 hc         1 UIT       0.041200
     14 H3          41.9960    27.8560    30.0630 hc         1 UIT       0.041200
     15 H4          41.0110    28.9620    27.3870 hc         1 UIT       0.023700
     16 H5          40.9050    27.2860    27.8880 hc         1 UIT       0.023700
     17 H6          43.4140    27.1900    28.0400 hc         1 UIT       0.040700
     18 H7          43.5010    28.8400    27.4540 hc         1 UIT       0.040700
     19 H8          42.3310    28.1560    25.3490 hc         1 UIT       0.028700
     20 H9          42.2740    26.5000    25.9240 hc         1 UIT       0.028700
     21 H10         44.7730    26.4390    25.9930 hc         1 UIT       0.036200
     22 H11         44.8310    28.0960    25.4260 hc         1 UIT       0.036200
     23 H12         45.1940    26.5060    23.5300 hc         1 UIT       0.023700
     24 H13         43.6350    25.7430    23.8570 hc         1 UIT       0.023700
     25 H14         43.6970    27.4110    23.2850 hc         1 UIT       0.023700
     26 H15         41.2470    31.6020    29.7160 ho         1 UIT       0.471000
@<TRIPOS>BOND
     1     1     2 1   
     2     1    10 1   
     3     1    11 1   
     4     2     3 1   
     5     2     9 1   
     6     2    12 1   
     7     3     4 1   
     8     3    13 1   
     9     3    14 1   
    10     4     5 1   
    11     4    15 1   
    12     4    16 1   
    13     5     6 1   
    14     5    17 1   
    15     5    18 1   
    16     6     7 1   
    17     6    19 1   
    18     6    20 1   
    19     7     8 1   
    20     7    21 1   
    21     7    22 1   
    22     8    23 1   
    23     8    24 1   
    24     8    25 1   
    25     9    26 1   
@<TRIPOS>SUBSTRUCTURE
     1 UIT         1 TEMP              0 ****  ****    0 ROOT
