@<TRIPOS>MOLECULE
UIT
   26    25     1     0     0
SMALL
No Charge or Current Charge


@<TRIPOS>ATOM
      1 CAA         42.2340    30.2650    31.3120 c          1 UIT       0.685000
      2 CAB         42.1660    30.0160    29.7590 c3         1 UIT       0.023300
      3 CAC         41.4580    28.6690    29.4440 c3         1 UIT      -0.069400
      4 CAD         41.4740    28.2330    27.9550 c3         1 UIT      -0.064400
      5 CAE         42.8840    27.9410    27.3900 c3         1 UIT      -0.074400
      6 CAF         42.8560    27.4250    25.9350 c3         1 UIT      -0.076400
      7 CAG         44.2630    27.1350    25.3680 c3         1 UIT      -0.077400
      8 CAH         44.2340    26.6200    23.9160 c3         1 UIT      -0.087100
      9 OAI         41.4880    31.1000    29.0700 oh         1 UIT      -0.720000
     10 OAJ         43.1230    29.7280    31.9570 o          1 UIT      -0.726500
     11 OAK         41.4590    31.0870    31.7880 o          1 UIT      -0.726500
     12 H1          43.2050    29.9530    29.4090 h1         1 UIT       0.028700
     13 H2          40.4160    28.7300    29.7810 hc         1 UIT       0.041200
     14 H3          41.9250    27.8760    30.0410 hc         1 UIT       0.041200
     15 H4          40.9870    29.0010    27.3410 hc         1 UIT       0.023700
     16 H5          40.8630    27.3270    27.8580 hc         1 UIT       0.023700
     17 H6          43.3810    27.1970    28.0260 hc         1 UIT       0.040700
     18 H7          43.4910    28.8540    27.4290 hc         1 UIT       0.040700
     19 H8          42.3580    28.1690    25.2990 hc         1 UIT       0.028700
     20 H9          42.2530    26.5090    25.8880 hc         1 UIT       0.028700
     21 H10         44.7630    26.3910    26.0000 hc         1 UIT       0.036200
     22 H11         44.8680    28.0490    25.4100 hc         1 UIT       0.036200
     23 H12         45.2530    26.4290    23.5580 hc         1 UIT       0.023700
     24 H13         43.6650    25.6850    23.8470 hc         1 UIT       0.023700
     25 H14         43.7700    27.3590    23.2510 hc         1 UIT       0.023700
     26 H15         41.0550    31.6180    29.7920 ho         1 UIT       0.471000
@<TRIPOS>BOND
     1     1     2 1   
     2     1    10 1   
     3     1    11 1   
     4     2     3 1   
     5     2     9 1   
     6     2    12 1   
     7     3     4 1   
     8     3    13 1   
     9     3    14 1   
    10     4     5 1   
    11     4    15 1   
    12     4    16 1   
    13     5     6 1   
    14     5    17 1   
    15     5    18 1   
    16     6     7 1   
    17     6    19 1   
    18     6    20 1   
    19     7     8 1   
    20     7    21 1   
    21     7    22 1   
    22     8    23 1   
    23     8    24 1   
    24     8    25 1   
    25     9    26 1   
@<TRIPOS>SUBSTRUCTURE
     1 UIT         1 TEMP              0 ****  ****    0 ROOT
