@<TRIPOS>MOLECULE
UIV
   38    39     1     0     0
SMALL
No Charge or Current Charge


@<TRIPOS>ATOM
      1 C10         49.2240    13.8760    38.2550 c          1 UIV       0.605100
      2 C13         49.6570    16.4120    38.5100 c6         1 UIV      -0.066900
      3 C15         49.7650    17.7810    36.2960 c6         1 UIV      -0.075400
      4 C17         50.2100    15.2520    36.2470 c6         1 UIV      -0.066900
      5 C01         46.7380    14.2170    38.6850 c3         1 UIV       0.095300
      6 C03         47.8820    12.0980    39.4180 c3         1 UIV       0.184300
      7 C04         48.0500    12.2710    40.9020 cc         1 UIV      -0.234300
      8 C05         49.2840    12.2310    41.5690 cc         1 UIV       0.263900
      9 C09         47.1120    12.4970    41.8650 cd         1 UIV      -0.168000
     10 C12         49.3230    15.2520    37.5340 c6         1 UIV      -0.137700
     11 C14         49.5010    17.8040    37.8310 c6         1 UIV      -0.073900
     12 C16         50.7600    16.6650    35.8980 c6         1 UIV      -0.073900
     13 N02         47.9740    13.4020    38.7290 n          1 UIV      -0.407800
     14 N06         49.2000    12.4120    42.8710 nd         1 UIV      -0.529800
     15 N07         47.8360    12.5810    43.0590 na         1 UIV       0.130800
     16 O11         50.2430    13.2200    38.4420 o          1 UIV      -0.609100
     17 H1          49.0200    16.3630    39.4040 hc         1 UIV       0.051200
     18 H2          50.6900    16.2910    38.8660 hc         1 UIV       0.051200
     19 H3          50.1430    18.7600    35.9700 hc         1 UIV       0.037200
     20 H4          48.8180    17.6250    35.7620 hc         1 UIV       0.037200
     21 H5          49.6220    14.8610    35.4050 hc         1 UIV       0.051200
     22 H6          51.0630    14.5690    36.3620 hc         1 UIV       0.051200
     23 H7          45.9430    13.7400    39.2710 h1         1 UIV       0.036367
     24 H8          46.9280    15.2120    39.1070 h1         1 UIV       0.036367
     25 H9          46.3970    14.3180    37.6470 h1         1 UIV       0.036367
     26 H10         46.9030    11.6450    39.2110 h1         1 UIV       0.062700
     27 H11         48.6440    11.4070    39.0320 h1         1 UIV       0.062700
     28 H12         50.2600    12.0720    41.1280 h4         1 UIV       0.052100
     29 H13         47.5310    11.9750    45.0540 h1         1 UIV       0.054700
     30 H14         47.7100    13.7400    44.8140 h1         1 UIV       0.054700
     31 H15         46.1920    12.9210    44.3380 h1         1 UIV       0.054700
     32 H16         46.0350    12.6050    41.8090 h4         1 UIV       0.148000
     33 H17         48.3110    15.4930    37.1910 hc         1 UIV       0.054700
     34 H18         50.1870    18.5130    38.3140 hc         1 UIV       0.039450
     35 H19         48.4890    18.1930    38.0110 hc         1 UIV       0.039450
     36 H20         51.7130    16.8290    36.4200 hc         1 UIV       0.039450
     37 H21         50.9840    16.7220    34.8240 hc         1 UIV       0.039450
     38 C08         47.2820    12.8190    44.3990 c3         1 UIV       0.073900
@<TRIPOS>BOND
     1     1    10 1   
     2     1    13 1   
     3     1    16 2   
     4     2    10 1   
     5     2    11 1   
     6     2    17 1   
     7     2    18 1   
     8     3    11 1   
     9     3    12 1   
    10     3    19 1   
    11     3    20 1   
    12     4    10 1   
    13     4    12 1   
    14     4    21 1   
    15     4    22 1   
    16     5    13 1   
    17     5    23 1   
    18     5    24 1   
    19     5    25 1   
    20     6     7 1   
    21     6    13 1   
    22     6    26 1   
    23     6    27 1   
    24     7     8 1   
    25     7     9 2   
    26     8    14 2   
    27     8    28 1   
    28     9    15 1   
    29     9    32 1   
    30    10    33 1   
    31    11    34 1   
    32    11    35 1   
    33    12    36 1   
    34    12    37 1   
    35    14    15 1   
    36    15    38 1   
    37    29    38 1   
    38    30    38 1   
    39    31    38 1   
@<TRIPOS>SUBSTRUCTURE
     1 UIV         1 TEMP              0 ****  ****    0 ROOT
