@<TRIPOS>MOLECULE
UIV
   38    39     1     0     0
SMALL
abcg2


@<TRIPOS>ATOM
      1 C10         49.1810    13.8890    38.1820 c          1 UIV       0.605100
      2 C13         49.7590    16.2920    38.4720 c6         1 UIV      -0.066900
      3 C15         49.7620    17.7010    36.3490 c6         1 UIV      -0.075400
      4 C17         50.1130    15.2050    36.2310 c6         1 UIV      -0.066900
      5 C01         46.8050    14.3170    38.7070 c3         1 UIV       0.095300
      6 C03         47.9270    12.2260    39.4190 c3         1 UIV       0.184300
      7 C04         48.1180    12.4120    40.8890 cc         1 UIV      -0.234300
      8 C05         49.3000    12.7190    41.5890 cc         1 UIV       0.263900
      9 C09         47.1610    12.3550    41.8780 cd         1 UIV      -0.168000
     10 C12         49.2280    15.2390    37.4890 c6         1 UIV      -0.137700
     11 C14         49.6120    17.7000    37.8770 c6         1 UIV      -0.073900
     12 C16         50.6990    16.5860    35.9030 c6         1 UIV      -0.073900
     13 N02         47.9930    13.4810    38.6800 n          1 UIV      -0.407800
     14 N06         49.0790    12.8370    42.8860 nd         1 UIV      -0.529800
     15 N07         47.7790    12.6130    43.0440 na         1 UIV       0.130800
     16 O11         50.1990    13.2170    38.3120 o          1 UIV      -0.609100
     17 H1          49.2370    16.2350    39.4300 hc         1 UIV       0.051200
     18 H2          50.8090    16.0720    38.6820 hc         1 UIV       0.051200
     19 H3          50.1240    18.6720    36.0080 hc         1 UIV       0.037200
     20 H4          48.7850    17.5570    35.8770 hc         1 UIV       0.037200
     21 H5          49.5150    14.8450    35.3900 hc         1 UIV       0.051200
     22 H6          50.9240    14.4890    36.3670 hc         1 UIV       0.051200
     23 H7          46.0540    13.8350    39.3270 h1         1 UIV       0.036367
     24 H8          46.9960    15.2990    39.1410 h1         1 UIV       0.036367
     25 H9          46.3750    14.4530    37.7140 h1         1 UIV       0.036367
     26 H10         46.9530    11.7740    39.2260 h1         1 UIV       0.062700
     27 H11         48.6750    11.5460    39.0160 h1         1 UIV       0.062700
     28 H12         50.2940    12.8550    41.1890 h4         1 UIV       0.052100
     29 H13         47.6550    11.9320    45.0160 h1         1 UIV       0.054700
     30 H14         47.3040    13.6570    44.7910 h1         1 UIV       0.054700
     31 H15         46.1280    12.4380    44.2770 h1         1 UIV       0.054700
     32 H16         46.1030    12.1490    41.8290 h4         1 UIV       0.148000
     33 H17         48.2240    15.5440    37.1890 hc         1 UIV       0.054700
     34 H18         50.3630    18.3540    38.3260 hc         1 UIV       0.039450
     35 H19         48.6400    18.1150    38.1500 hc         1 UIV       0.039450
     36 H20         51.6630    16.7130    36.4030 hc         1 UIV       0.039450
     37 H21         50.9020    16.6550    34.8320 hc         1 UIV       0.039450
     38 C08         47.1880    12.6640    44.3590 c3         1 UIV       0.073900
@<TRIPOS>BOND
     1     1    10 1   
     2     1    13 1   
     3     1    16 2   
     4     2    10 1   
     5     2    11 1   
     6     2    17 1   
     7     2    18 1   
     8     3    11 1   
     9     3    12 1   
    10     3    19 1   
    11     3    20 1   
    12     4    10 1   
    13     4    12 1   
    14     4    21 1   
    15     4    22 1   
    16     5    13 1   
    17     5    23 1   
    18     5    24 1   
    19     5    25 1   
    20     6     7 1   
    21     6    13 1   
    22     6    26 1   
    23     6    27 1   
    24     7     8 1   
    25     7     9 2   
    26     8    14 2   
    27     8    28 1   
    28     9    15 1   
    29     9    32 1   
    30    10    33 1   
    31    11    34 1   
    32    11    35 1   
    33    12    36 1   
    34    12    37 1   
    35    14    15 1   
    36    15    38 1   
    37    29    38 1   
    38    30    38 1   
    39    31    38 1   
@<TRIPOS>SUBSTRUCTURE
     1 UIV         1 TEMP              0 ****  ****    0 ROOT
