@<TRIPOS>MOLECULE
UIW
   47    49     1     0     0
SMALL
No Charge or Current Charge


@<TRIPOS>ATOM
      1 C10         18.0230   -13.5040   -30.7460 ca         1 UIW       0.285000
      2 C13         18.5280   -10.7710   -30.2710 ca         1 UIW      -0.117000
      3 C15         18.1190   -13.0250   -29.4170 ca         1 UIW      -0.087300
      4 C17         15.9670   -14.9740   -32.7310 ca         1 UIW      -0.172000
      5 C21         14.8260   -11.5830   -31.3550 ca         1 UIW      -0.116600
      6 C22         15.0610   -10.8040   -32.5170 ca         1 UIW      -0.116000
      7 C26         14.3290    -9.5180   -30.1310 ca         1 UIW      -0.000900
      8 C28         14.4580   -10.9170   -30.1620 ca         1 UIW      -0.048000
      9 C01         13.7640   -18.3970   -36.7990 c3         1 UIW       0.096300
     10 C05         15.9080   -17.0970   -33.8870 ca         1 UIW      -0.255600
     11 C06         16.9300   -17.5320   -33.0260 ca         1 UIW       0.445900
     12 C08         17.0260   -15.5090   -31.9570 ca         1 UIW       0.639900
     13 C11         18.2120   -12.6140   -31.8200 ca         1 UIW      -0.148000
     14 C12         18.4580   -11.2510   -31.5870 ca         1 UIW      -0.101000
     15 C14         18.3660   -11.6540   -29.1910 ca         1 UIW      -0.094000
     16 C16         17.9270   -13.9560   -28.2220 c3         1 UIW      -0.054800
     17 C19         14.9960   -13.0890   -31.3400 c          1 UIW       0.612700
     18 C23         14.9290    -9.4070   -32.4750 ca         1 UIW       0.161000
     19 C25         14.5640    -8.7590   -31.2870 ca         1 UIW      -0.105000
     20 C29         15.4140   -15.7830   -33.7350 ca         1 UIW      -0.006000
     21 F24         15.1600    -8.6790   -33.5890 f          1 UIW      -0.175000
     22 N02         14.3910   -17.5990   -35.7420 ns         1 UIW      -0.506900
     23 N07         17.4850   -16.7500   -32.0730 nb         1 UIW      -0.749000
     24 N09         17.7450   -14.8480   -31.0000 nu         1 UIW      -0.950900
     25 O04         15.8220   -19.1970   -35.0130 o          1 UIW      -0.609100
     26 O20         14.7640   -13.7550   -30.3350 o          1 UIW      -0.568100
     27 Br27        13.8420    -8.6430   -28.5010 br         1 UIW      -0.086100
     28 H131        18.7140    -9.7150   -30.0870 ha         1 UIW       0.120000
     29 H221        15.3540   -11.2610   -33.4580 ha         1 UIW       0.134000
     30 H281        14.2800   -11.4830   -29.2490 ha         1 UIW       0.157000
     31 H013        13.0020   -17.7960   -37.3100 h1         1 UIW       0.042367
     32 H011        14.5240   -18.7110   -37.5260 h1         1 UIW       0.042367
     33 H012        13.2900   -19.2850   -36.3600 h1         1 UIW       0.042367
     34 H061        17.3350   -18.5410   -33.0970 h4         1 UIW       0.047100
     35 H111        18.1680   -12.9800   -32.8420 ha         1 UIW       0.120000
     36 H121        18.5930   -10.5700   -32.4240 ha         1 UIW       0.118000
     37 H141        18.4280   -11.2690   -28.1750 ha         1 UIW       0.120000
     38 H161        16.9540   -14.4600   -28.2670 hc         1 UIW       0.052700
     39 H163        18.7060   -14.7270   -28.1930 hc         1 UIW       0.052700
     40 H162        17.9680   -13.4140   -27.2700 hc         1 UIW       0.052700
     41 H251        14.4670    -7.6770   -31.2650 ha         1 UIW       0.151000
     42 H291        14.6080   -15.3940   -34.3540 ha         1 UIW       0.122000
     43 H021        14.0790   -16.6470   -35.6080 hn         1 UIW       0.311500
     44 H091        18.1780   -15.5110   -30.3670 hn         1 UIW       0.514000
     45 H181        15.5010   -13.0500   -33.3170 hn         1 UIW       0.152000
     46 N18         15.4350   -13.6710   -32.5220 ns         1 UIW      -0.147000
     47 C03         15.3880   -18.0590   -34.9120 c          1 UIW       0.620700
@<TRIPOS>BOND
     1     1     3 ar  
     2     1    13 ar  
     3     1    24 1   
     4     2    14 ar  
     5     2    15 ar  
     6     2    28 1   
     7     3    15 ar  
     8     3    16 1   
     9     4    12 ar  
    10     4    20 ar  
    11     4    46 1   
    12     5     6 ar  
    13     5     8 ar  
    14     5    17 1   
    15     6    18 ar  
    16     6    29 1   
    17     7     8 ar  
    18     7    19 ar  
    19     7    27 1   
    20     8    30 1   
    21     9    22 1   
    22     9    31 1   
    23     9    32 1   
    24     9    33 1   
    25    10    11 ar  
    26    10    20 ar  
    27    10    47 1   
    28    11    23 ar  
    29    11    34 1   
    30    12    23 ar  
    31    12    24 1   
    32    13    14 ar  
    33    13    35 1   
    34    14    36 1   
    35    15    37 1   
    36    16    38 1   
    37    16    39 1   
    38    16    40 1   
    39    17    26 2   
    40    17    46 1   
    41    18    19 ar  
    42    18    21 1   
    43    19    41 1   
    44    20    42 1   
    45    22    43 1   
    46    22    47 1   
    47    24    44 1   
    48    25    47 2   
    49    45    46 1   
@<TRIPOS>SUBSTRUCTURE
     1 UIW         1 TEMP              0 ****  ****    0 ROOT
