@<TRIPOS>MOLECULE
UIW
   47    49     1     0     0
SMALL
abcg2


@<TRIPOS>ATOM
      1 C10         17.9620   -13.4090   -30.9220 ca         1 UIW       0.285000
      2 C13         18.4800   -10.6740   -30.8910 ca         1 UIW      -0.117000
      3 C15         17.8540   -12.7070   -29.7140 ca         1 UIW      -0.087300
      4 C17         15.9950   -14.9650   -32.7260 ca         1 UIW      -0.172000
      5 C21         14.8280   -11.7490   -31.1990 ca         1 UIW      -0.116600
      6 C22         14.9270   -10.8200   -32.2340 ca         1 UIW      -0.116000
      7 C26         14.7280    -9.9590   -29.6080 ca         1 UIW      -0.000900
      8 C28         14.7100   -11.3160   -29.8790 ca         1 UIW      -0.048000
      9 C01         14.0340   -18.4020   -36.8880 c3         1 UIW       0.096300
     10 C05         15.7940   -17.1160   -33.7910 ca         1 UIW      -0.255600
     11 C06         16.7320   -17.5770   -32.8690 ca         1 UIW       0.445900
     12 C08         17.0120   -15.5050   -31.8970 ca         1 UIW       0.639900
     13 C11         18.3540   -12.7530   -32.0900 ca         1 UIW      -0.148000
     14 C12         18.5950   -11.3870   -32.0800 ca         1 UIW      -0.101000
     15 C14         18.1270   -11.3390   -29.7240 ca         1 UIW      -0.094000
     16 C16         17.4130   -13.3970   -28.4560 c3         1 UIW      -0.054800
     17 C19         14.9220   -13.2300   -31.4140 c          1 UIW       0.612700
     18 C23         14.9190    -9.4770   -31.9130 ca         1 UIW       0.161000
     19 C25         14.8300    -9.0090   -30.6150 ca         1 UIW      -0.105000
     20 C29         15.4180   -15.7750   -33.6790 ca         1 UIW      -0.006000
     21 F24         15.0170    -8.5720   -32.9130 f          1 UIW      -0.175000
     22 N02         14.6130   -17.5610   -35.8570 ns         1 UIW      -0.506900
     23 N07         17.3290   -16.8100   -31.9670 nb         1 UIW      -0.749000
     24 N09         17.6780   -14.7950   -30.9400 nu         1 UIW      -0.950900
     25 O04         15.3090   -19.3000   -34.5980 o          1 UIW      -0.609100
     26 O20         14.5110   -14.0260   -30.5770 o          1 UIW      -0.568100
     27 BR27        14.6550    -9.3730   -27.7910 br         1 UIW      -0.086100
     28 H131        18.6600    -9.6070   -30.8740 ha         1 UIW       0.120000
     29 H221        15.0000   -11.1070   -33.2730 ha         1 UIW       0.134000
     30 H281        14.6470   -12.0440   -29.0860 ha         1 UIW       0.157000
     31 H013        13.5390   -17.7630   -37.6150 h1         1 UIW       0.042367
     32 H011        14.8000   -18.9940   -37.3950 h1         1 UIW       0.042367
     33 H012        13.3020   -19.0860   -36.4580 h1         1 UIW       0.042367
     34 H061        17.0160   -18.6230   -32.8800 h4         1 UIW       0.047100
     35 H111        18.4560   -13.3200   -33.0070 ha         1 UIW       0.120000
     36 H121        18.8770   -10.8840   -32.9970 ha         1 UIW       0.118000
     37 H141        18.0240   -10.7830   -28.8000 ha         1 UIW       0.120000
     38 H161        16.4740   -13.9310   -28.6190 hc         1 UIW       0.052700
     39 H163        18.1480   -14.1360   -28.1230 hc         1 UIW       0.052700
     40 H162        17.2710   -12.6760   -27.6530 hc         1 UIW       0.052700
     41 H251        14.8460    -7.9490   -30.4100 ha         1 UIW       0.151000
     42 H291        14.6340   -15.3490   -34.2920 ha         1 UIW       0.122000
     43 H021        14.6620   -16.5710   -36.0300 hn         1 UIW       0.311500
     44 H091        18.1820   -15.3740   -30.2830 hn         1 UIW       0.514000
     45 H181        15.9430   -12.9270   -33.1560 hn         1 UIW       0.152000
     46 N18         15.5360   -13.6300   -32.5590 ns         1 UIW      -0.147000
     47 C03         15.2230   -18.0790   -34.7730 c          1 UIW       0.620700
@<TRIPOS>BOND
     1     1     3 ar  
     2     1    13 ar  
     3     1    24 1   
     4     2    14 ar  
     5     2    15 ar  
     6     2    28 1   
     7     3    15 ar  
     8     3    16 1   
     9     4    12 ar  
    10     4    20 ar  
    11     4    46 1   
    12     5     6 ar  
    13     5     8 ar  
    14     5    17 1   
    15     6    18 ar  
    16     6    29 1   
    17     7     8 ar  
    18     7    19 ar  
    19     7    27 1   
    20     8    30 1   
    21     9    22 1   
    22     9    31 1   
    23     9    32 1   
    24     9    33 1   
    25    10    11 ar  
    26    10    20 ar  
    27    10    47 1   
    28    11    23 ar  
    29    11    34 1   
    30    12    23 ar  
    31    12    24 1   
    32    13    14 ar  
    33    13    35 1   
    34    14    36 1   
    35    15    37 1   
    36    16    38 1   
    37    16    39 1   
    38    16    40 1   
    39    17    26 2   
    40    17    46 1   
    41    18    19 ar  
    42    18    21 1   
    43    19    41 1   
    44    20    42 1   
    45    22    43 1   
    46    22    47 1   
    47    24    44 1   
    48    25    47 2   
    49    45    46 1   
@<TRIPOS>SUBSTRUCTURE
     1 UIW         1 TEMP              0 ****  ****    0 ROOT
