@<TRIPOS>MOLECULE
UJ1
   66    68     1     0     0
SMALL
abcg2


@<TRIPOS>ATOM
      1 N1           7.7210     1.8560    22.7850 ns         1 UJ1      -0.165000
      2 N3          10.3720    -1.4730    23.6530 na         1 UJ1      -0.012200
      3 C4           7.9390     1.5620    21.4860 c          1 UJ1       0.599100
      4 C5           8.1290     3.0930    23.3760 ca         1 UJ1      -0.045000
      5 C6           9.2040     3.1160    24.2710 ca         1 UJ1      -0.065300
      6 C7           9.9480     1.8630    24.6490 c3         1 UJ1      -0.036100
      7 C8           9.3290     1.1580    25.8610 c3         1 UJ1      -0.081100
      8 C10          8.8840     5.5050    24.5100 ca         1 UJ1      -0.102000
      9 C15          7.8830    -1.1510    19.0180 ca         1 UJ1       0.346900
     10 C17          7.1220     0.7500    17.2380 ca         1 UJ1      -0.162000
     11 C20          9.9930    -0.8400    21.6020 cc         1 UJ1      -0.229000
     12 C21         11.0020    -1.1220    22.5070 cd         1 UJ1      -0.104300
     13 C22         12.5040    -1.0790    22.3770 c3         1 UJ1       0.010300
     14 C24         13.0910    -2.4620    22.7120 c3         1 UJ1      -0.086100
     15 O1           8.6030     2.2650    20.7380 o          1 UJ1      -0.578100
     16 C3           7.1960     0.2990    20.9960 c3         1 UJ1       0.082000
     17 C14          7.3780     0.0430    19.5160 ca         1 UJ1      -0.133300
     18 C18          6.9790     1.0080    18.5920 ca         1 UJ1      -0.043000
     19 C16          7.6560    -0.4720    16.8450 ca         1 UJ1       0.335900
     20 N2           8.0270    -1.4140    17.7140 nb         1 UJ1      -0.668000
     21 N            7.4770    -0.8660    21.8390 n          1 UJ1      -0.406300
     22 C19          8.7920    -1.0530    22.3140 cc         1 UJ1       0.361900
     23 N4           9.0270    -1.4150    23.5700 nd         1 UJ1      -0.548800
     24 C25         12.8850    -0.7030    20.9400 c3         1 UJ1      -0.086100
     25 C23         13.0730    -0.0260    23.3470 c3         1 UJ1      -0.086100
     26 C2           6.4470    -1.7740    22.0100 c          1 UJ1       0.613100
     27 O            5.3280    -1.5150    21.5840 o          1 UJ1      -0.583100
     28 C1           6.7550    -3.0880    22.6950 c3         1 UJ1      -0.145400
     29 C            5.6910    -4.1470    22.4340 c3         1 UJ1      -0.079100
     30 C12          7.4220     4.2570    23.0390 ca         1 UJ1      -0.062300
     31 C11          7.8200     5.4600    23.6170 ca         1 UJ1      -0.109000
     32 C9           9.5660     4.3400    24.8350 ca         1 UJ1      -0.111000
     33 H1           7.2050     1.1940    23.3460 hn         1 UJ1       0.169000
     34 H2          10.7920    -1.7380    24.5290 hn         1 UJ1       0.374000
     35 H3           9.9720     1.1780    23.8040 hc         1 UJ1       0.050700
     36 H4          10.9830     2.1260    24.8750 hc         1 UJ1       0.050700
     37 H5           9.8840     0.2500    26.1020 hc         1 UJ1       0.032700
     38 H6           9.3400     1.8100    26.7360 hc         1 UJ1       0.032700
     39 H7           8.2930     0.8770    25.6620 hc         1 UJ1       0.032700
     40 H8           9.1800     6.4480    24.9520 ha         1 UJ1       0.114000
     41 H9           6.6070     4.0390    21.0600 hc         1 UJ1       0.046367
     42 H10          5.5690     3.4120    22.3310 hc         1 UJ1       0.046367
     43 H11          5.7200     5.1600    22.0990 hc         1 UJ1       0.046367
     44 H12          8.1850    -1.9420    19.6940 h4         1 UJ1       0.021100
     45 H13          6.8220     1.4780    16.4970 ha         1 UJ1       0.124000
     46 H14         10.1100    -0.5310    20.5800 ha         1 UJ1       0.165000
     47 H15         12.8630    -2.7560    23.7390 hc         1 UJ1       0.042256
     48 H16         12.6920    -3.2250    22.0410 hc         1 UJ1       0.042256
     49 H17         14.1770    -2.4380    22.6010 hc         1 UJ1       0.042256
     50 H18          6.1380     0.5220    21.1510 h1         1 UJ1       0.101700
     51 H19          6.5560     1.9440    18.9320 ha         1 UJ1       0.123000
     52 H20          7.7830    -0.7030    15.7930 h4         1 UJ1       0.018100
     53 H21         13.9720    -0.6760    20.8500 hc         1 UJ1       0.042256
     54 H22         12.5020    -1.4330    20.2250 hc         1 UJ1       0.042256
     55 H23         12.4960     0.2810    20.6720 hc         1 UJ1       0.042256
     56 H24         12.8300    -0.2690    24.3830 hc         1 UJ1       0.042256
     57 H25         14.1600     0.0120    23.2520 hc         1 UJ1       0.042256
     58 H26         12.6710     0.9640    23.1250 hc         1 UJ1       0.042256
     59 H27          6.8440    -2.8910    23.7650 hc         1 UJ1       0.071700
     60 H28          7.7390    -3.4350    22.3770 hc         1 UJ1       0.071700
     61 H29          5.9630    -5.0710    22.9460 hc         1 UJ1       0.043700
     62 H30          4.7150    -3.8280    22.7980 hc         1 UJ1       0.043700
     63 H31          5.6010    -4.3630    21.3680 hc         1 UJ1       0.043700
     64 H32          7.2840     6.3670    23.3670 ha         1 UJ1       0.114000
     65 H33         10.3990     4.3730    25.5270 ha         1 UJ1       0.113000
     66 C13          6.2630     4.2160    22.0820 c3         1 UJ1      -0.048800
@<TRIPOS>BOND
     1     1     3 1   
     2     1     4 1   
     3     1    33 1   
     4     2    12 1   
     5     2    23 1   
     6     2    34 1   
     7     3    15 2   
     8     3    16 1   
     9     4     5 ar  
    10     4    30 ar  
    11     5     6 1   
    12     5    32 ar  
    13     6     7 1   
    14     6    35 1   
    15     6    36 1   
    16     7    37 1   
    17     7    38 1   
    18     7    39 1   
    19     8    31 ar  
    20     8    32 ar  
    21     8    40 1   
    22     9    17 ar  
    23     9    20 ar  
    24     9    44 1   
    25    10    18 ar  
    26    10    19 ar  
    27    10    45 1   
    28    11    12 2   
    29    11    22 1   
    30    11    46 1   
    31    12    13 1   
    32    13    14 1   
    33    13    24 1   
    34    13    25 1   
    35    14    47 1   
    36    14    48 1   
    37    14    49 1   
    38    16    17 1   
    39    16    21 1   
    40    16    50 1   
    41    17    18 ar  
    42    18    51 1   
    43    19    20 ar  
    44    19    52 1   
    45    21    22 1   
    46    21    26 1   
    47    22    23 2   
    48    24    53 1   
    49    24    54 1   
    50    24    55 1   
    51    25    56 1   
    52    25    57 1   
    53    25    58 1   
    54    26    27 2   
    55    26    28 1   
    56    28    29 1   
    57    28    59 1   
    58    28    60 1   
    59    29    61 1   
    60    29    62 1   
    61    29    63 1   
    62    30    31 ar  
    63    30    66 1   
    64    31    64 1   
    65    32    65 1   
    66    41    66 1   
    67    42    66 1   
    68    43    66 1   
@<TRIPOS>SUBSTRUCTURE
     1 UJ1         1 TEMP              0 ****  ****    0 ROOT
