@<TRIPOS>MOLECULE
UJ1
   66    68     1     0     0
SMALL
No Charge or Current Charge


@<TRIPOS>ATOM
      1 N1           7.9490     1.9040    22.6800 ns         1 UJ1      -0.165000
      2 N3          10.4590    -1.6890    23.6570 na         1 UJ1      -0.012200
      3 C4           7.9980     1.5560    21.3390 c          1 UJ1       0.599100
      4 C5           8.3400     3.1120    23.3220 ca         1 UJ1      -0.045000
      5 C6           9.2190     3.0530    24.4330 ca         1 UJ1      -0.065300
      6 C7           9.7760     1.7260    24.9460 c3         1 UJ1      -0.036100
      7 C8           8.7840     0.9800    25.8570 c3         1 UJ1      -0.081100
      8 C10          9.1280     5.4810    24.6410 ca         1 UJ1      -0.102000
      9 C15          8.0440    -1.2840    19.0280 ca         1 UJ1       0.346900
     10 C17          6.7830     0.3080    17.1810 ca         1 UJ1      -0.162000
     11 C20          9.9500    -0.7220    21.7690 cc         1 UJ1      -0.229000
     12 C21         11.0240    -1.0530    22.5400 cd         1 UJ1      -0.104300
     13 C22         12.5120    -0.8240    22.3300 c3         1 UJ1       0.010300
     14 C24         13.2490    -2.1870    22.3360 c3         1 UJ1      -0.086100
     15 O1           8.5870     2.2370    20.5040 o          1 UJ1      -0.578100
     16 C3           7.2700     0.2230    20.9820 c3         1 UJ1       0.082000
     17 C14          7.3540    -0.1400    19.4900 ca         1 UJ1      -0.133300
     18 C18          6.7030     0.6670    18.5360 ca         1 UJ1      -0.043000
     19 C16          7.5000    -0.8420    16.8180 ca         1 UJ1       0.335900
     20 N2           8.1210    -1.6330    17.7210 nb         1 UJ1      -0.668000
     21 N            7.5300    -0.9430    21.9080 n          1 UJ1      -0.406300
     22 C19          8.8040    -1.1660    22.4490 cc         1 UJ1       0.361900
     23 N4           9.0660    -1.7460    23.5970 nd         1 UJ1      -0.548800
     24 C25         12.7680    -0.1190    20.9730 c3         1 UJ1      -0.086100
     25 C23         13.0590     0.0720    23.4710 c3         1 UJ1      -0.086100
     26 C2           6.4190    -1.7770    22.2260 c          1 UJ1       0.613100
     27 O            5.2740    -1.3860    22.0320 o          1 UJ1      -0.583100
     28 C1           6.6430    -3.2130    22.7520 c3         1 UJ1      -0.145400
     29 C            5.4930    -4.2080    22.4710 c3         1 UJ1      -0.079100
     30 C12          7.8280     4.3700    22.8990 ca         1 UJ1      -0.062300
     31 C11          8.2390     5.5430    23.5600 ca         1 UJ1      -0.109000
     32 C9           9.6090     4.2410    25.0800 ca         1 UJ1      -0.111000
     33 H1           7.5300     1.2130    23.2900 hn         1 UJ1       0.169000
     34 H2          10.9710    -2.0750    24.4490 hn         1 UJ1       0.374000
     35 H3          10.0540     1.0830    24.1060 hc         1 UJ1       0.050700
     36 H4          10.7050     1.8940    25.5050 hc         1 UJ1       0.050700
     37 H5           9.2280     0.0450    26.2200 hc         1 UJ1       0.032700
     38 H6           8.5210     1.5950    26.7260 hc         1 UJ1       0.032700
     39 H7           7.8630     0.7330    25.3160 hc         1 UJ1       0.032700
     40 H8           9.4360     6.3940    25.1470 ha         1 UJ1       0.114000
     41 H9           7.2930     4.5660    20.7960 hc         1 UJ1       0.046367
     42 H10          6.1000     3.6640    21.7560 hc         1 UJ1       0.046367
     43 H11          6.2000     5.4140    21.8920 hc         1 UJ1       0.046367
     44 H12          8.5510    -1.9570    19.7170 h4         1 UJ1       0.021100
     45 H13          6.2970     0.9090    16.4180 ha         1 UJ1       0.124000
     46 H14          9.9760    -0.2230    20.8090 ha         1 UJ1       0.165000
     47 H15         13.1300    -2.6990    23.2980 hc         1 UJ1       0.042256
     48 H16         12.8550    -2.8440    21.5510 hc         1 UJ1       0.042256
     49 H17         14.3240    -2.0530    22.1590 hc         1 UJ1       0.042256
     50 H18          6.2290     0.5300    21.1380 h1         1 UJ1       0.101700
     51 H19          6.1490     1.5550    18.8350 ha         1 UJ1       0.123000
     52 H20          7.5770    -1.1420    15.7740 h4         1 UJ1       0.018100
     53 H21         13.8400     0.0490    20.8140 hc         1 UJ1       0.042256
     54 H22         12.3960    -0.7260    20.1390 hc         1 UJ1       0.042256
     55 H23         12.2670     0.8560    20.9360 hc         1 UJ1       0.042256
     56 H24         12.9150    -0.4000    24.4500 hc         1 UJ1       0.042256
     57 H25         14.1330     0.2580    23.3420 hc         1 UJ1       0.042256
     58 H26         12.5470     1.0410    23.4830 hc         1 UJ1       0.042256
     59 H27          6.8200    -3.1440    23.8310 hc         1 UJ1       0.071700
     60 H28          7.5930    -3.5960    22.3630 hc         1 UJ1       0.071700
     61 H29          5.7430    -5.2020    22.8600 hc         1 UJ1       0.043700
     62 H30          4.5640    -3.8780    22.9520 hc         1 UJ1       0.043700
     63 H31          5.3130    -4.2970    21.3920 hc         1 UJ1       0.043700
     64 H32          7.8580     6.5110    23.2420 ha         1 UJ1       0.114000
     65 H33         10.2890     4.2030    25.9280 ha         1 UJ1       0.113000
     66 C13          6.8020     4.5050    21.7740 c3         1 UJ1      -0.048800
@<TRIPOS>BOND
     1     1     3 1   
     2     1     4 1   
     3     1    33 1   
     4     2    12 1   
     5     2    23 1   
     6     2    34 1   
     7     3    15 2   
     8     3    16 1   
     9     4     5 ar  
    10     4    30 ar  
    11     5     6 1   
    12     5    32 ar  
    13     6     7 1   
    14     6    35 1   
    15     6    36 1   
    16     7    37 1   
    17     7    38 1   
    18     7    39 1   
    19     8    31 ar  
    20     8    32 ar  
    21     8    40 1   
    22     9    17 ar  
    23     9    20 ar  
    24     9    44 1   
    25    10    18 ar  
    26    10    19 ar  
    27    10    45 1   
    28    11    12 2   
    29    11    22 1   
    30    11    46 1   
    31    12    13 1   
    32    13    14 1   
    33    13    24 1   
    34    13    25 1   
    35    14    47 1   
    36    14    48 1   
    37    14    49 1   
    38    16    17 1   
    39    16    21 1   
    40    16    50 1   
    41    17    18 ar  
    42    18    51 1   
    43    19    20 ar  
    44    19    52 1   
    45    21    22 1   
    46    21    26 1   
    47    22    23 2   
    48    24    53 1   
    49    24    54 1   
    50    24    55 1   
    51    25    56 1   
    52    25    57 1   
    53    25    58 1   
    54    26    27 2   
    55    26    28 1   
    56    28    29 1   
    57    28    59 1   
    58    28    60 1   
    59    29    61 1   
    60    29    62 1   
    61    29    63 1   
    62    30    31 ar  
    63    30    66 1   
    64    31    64 1   
    65    32    65 1   
    66    41    66 1   
    67    42    66 1   
    68    43    66 1   
@<TRIPOS>SUBSTRUCTURE
     1 UJ1         1 TEMP              0 ****  ****    0 ROOT
