@<TRIPOS>MOLECULE
UJ2
   44    47     1     0     0
SMALL
bcc


@<TRIPOS>ATOM
      1 C4          -1.1800    -2.3100    -3.9540 ca         1 UJ2      -0.112600
      2 C5          -2.0210    -2.9490    -3.0220 ca         1 UJ2      -0.115000
      3 C6          -2.4460    -4.2540    -3.1810 ca         1 UJ2      -0.115000
      4 C8          -1.6650    -6.3580    -5.8690 cc         1 UJ2       0.333800
      5 C10         -1.6030    -7.6120    -6.7050 c3         1 UJ2       0.194100
      6 C13         -1.1260    -7.8630   -10.4600 ca         1 UJ2      -0.125000
      7 C15         -2.7460    -6.1520   -10.0400 ca         1 UJ2      -0.125000
      8 C17         -2.1230    -6.6540   -12.4080 cp         1 UJ2      -0.029000
      9 C20         -2.3460    -6.1910   -15.1620 ca         1 UJ2      -0.131000
     10 C21         -2.3830    -5.1290   -14.2690 ca         1 UJ2      -0.132000
     11 C22         -2.2730    -5.3590   -12.9050 ca         1 UJ2      -0.117500
     12 C1          -2.0240    -4.9480    -4.3150 ca         1 UJ2       0.040400
     13 N7          -2.3000    -6.2280    -4.7390 nd         1 UJ2      -0.570100
     14 N9          -0.9720    -5.2420    -6.2170 na         1 UJ2      -0.270300
     15 C11         -1.7400    -7.3250    -8.1860 ca         1 UJ2      -0.124300
     16 C12         -1.0010    -8.0740    -9.0960 ca         1 UJ2      -0.108500
     17 C16         -2.6180    -6.3620    -8.6780 ca         1 UJ2      -0.108500
     18 C14         -2.0010    -6.8950   -10.9560 cp         1 UJ2      -0.035000
     19 C18         -2.0880    -7.7140   -13.3160 ca         1 UJ2      -0.117500
     20 C19         -2.1990    -7.4850   -14.6790 ca         1 UJ2      -0.132000
     21 O23         -2.4840    -8.5950    -6.2350 os         1 UJ2      -0.382600
     22 C2          -1.1840    -4.3070    -5.2370 ca         1 UJ2      -0.087200
     23 C3          -0.7480    -2.9990    -5.0790 ca         1 UJ2      -0.126000
     24 C25         -0.7480    -0.8610    -3.7380 c          1 UJ2       0.923200
     25 O26          0.0490    -0.3880    -4.5720 o          1 UJ2      -0.823800
     26 O27         -1.2340    -0.2770    -2.7500 o          1 UJ2      -0.823800
     27 H29         -2.3420    -2.3900    -2.1530 ha         1 UJ2       0.149000
     28 H30         -3.0910    -4.7270    -2.4500 ha         1 UJ2       0.122000
     29 H32         -0.6050    -8.0380    -6.5470 h1         1 UJ2       0.078700
     30 H34         -0.5160    -8.4410   -11.1420 ha         1 UJ2       0.132000
     31 H35         -3.4490    -5.4080   -10.3930 ha         1 UJ2       0.132000
     32 H39         -2.4320    -6.0130   -16.2260 ha         1 UJ2       0.126000
     33 H40         -2.4910    -4.1160   -14.6350 ha         1 UJ2       0.127500
     34 H41         -2.2810    -4.5160   -12.2250 ha         1 UJ2       0.134500
     35 H42         -4.3890    -9.1950    -5.9760 h1         1 UJ2       0.033033
     36 H44         -4.2290    -7.4420    -6.1450 h1         1 UJ2       0.033033
     37 H43         -4.0870    -8.4900    -7.5700 h1         1 UJ2       0.033033
     38 H31         -0.4180    -5.1170    -7.0500 hn         1 UJ2       0.295700
     39 H33         -0.3050    -8.8210    -8.7350 ha         1 UJ2       0.143000
     40 H36         -3.2150    -5.7650    -7.9990 ha         1 UJ2       0.143000
     41 H37         -1.9920    -8.7310   -12.9550 ha         1 UJ2       0.134500
     42 H38         -2.1760    -8.3220   -15.3660 ha         1 UJ2       0.127500
     43 H28         -0.1000    -2.5240    -5.8030 ha         1 UJ2       0.151000
     44 C24         -3.8560    -8.4050    -6.5040 c3         1 UJ2       0.122700
@<TRIPOS>BOND
     1     1     2 ar  
     2     1    23 ar  
     3     1    24 1   
     4     2     3 ar  
     5     2    27 1   
     6     3    12 ar  
     7     3    28 1   
     8     4     5 1   
     9     4    13 2   
    10     4    14 1   
    11     5    15 1   
    12     5    21 1   
    13     5    29 1   
    14     6    16 ar  
    15     6    18 ar  
    16     6    30 1   
    17     7    17 ar  
    18     7    18 ar  
    19     7    31 1   
    20     8    11 ar  
    21     8    18 1   
    22     8    19 ar  
    23     9    10 ar  
    24     9    20 ar  
    25     9    32 1   
    26    10    11 ar  
    27    10    33 1   
    28    11    34 1   
    29    12    13 1   
    30    12    22 ar  
    31    14    22 1   
    32    14    38 1   
    33    15    16 ar  
    34    15    17 ar  
    35    16    39 1   
    36    17    40 1   
    37    19    20 ar  
    38    19    41 1   
    39    20    42 1   
    40    21    44 1   
    41    22    23 ar  
    42    23    43 1   
    43    24    25 1   
    44    24    26 1   
    45    35    44 1   
    46    36    44 1   
    47    37    44 1   
@<TRIPOS>SUBSTRUCTURE
     1 UJ2         1 TEMP              0 ****  ****    0 ROOT
