@<TRIPOS>MOLECULE
UJ2
   44    47     1     0     0
SMALL
No Charge or Current Charge


@<TRIPOS>ATOM
      1 C4          -1.1930    -2.2620    -3.8430 ca         1 UJ2      -0.112600
      2 C5          -1.7920    -3.0010    -2.7810 ca         1 UJ2      -0.097000
      3 C6          -2.1250    -4.3650    -2.9370 ca         1 UJ2      -0.097000
      4 C8          -1.6670    -6.3700    -5.8170 cc         1 UJ2       0.333800
      5 C10         -1.6520    -7.6250    -6.6990 c3         1 UJ2       0.217300
      6 C13         -1.1080    -7.9170   -10.4960 ca         1 UJ2      -0.107000
      7 C15         -2.7390    -6.1660   -10.1120 ca         1 UJ2      -0.107000
      8 C17         -2.0720    -6.6970   -12.5040 cp         1 UJ2      -0.029000
      9 C20         -2.2630    -6.2580   -15.3070 ca         1 UJ2      -0.113000
     10 C21         -2.3780    -5.1790   -14.4160 ca         1 UJ2      -0.114000
     11 C22         -2.2850    -5.3960   -13.0300 ca         1 UJ2      -0.099500
     12 C1          -1.8550    -4.9810    -4.1640 ca         1 UJ2       0.040400
     13 N7          -2.0950    -6.3000    -4.5340 nd         1 UJ2      -0.570100
     14 N9          -1.1460    -5.1370    -6.2230 na         1 UJ2      -0.320600
     15 C11         -1.7790    -7.3690    -8.2110 ca         1 UJ2      -0.124300
     16 C12         -1.0130    -8.1340    -9.1110 ca         1 UJ2      -0.090500
     17 C16         -2.6470    -6.3820    -8.7260 ca         1 UJ2      -0.090500
     18 C14         -1.9720    -6.9280   -11.0270 cp         1 UJ2      -0.035000
     19 C18         -1.9580    -7.7700   -13.4240 ca         1 UJ2      -0.099500
     20 C19         -2.0530    -7.5540   -14.8100 ca         1 UJ2      -0.114000
     21 O23         -2.6510    -8.5980    -6.2790 os         1 UJ2      -0.429000
     22 C2          -1.2830    -4.2760    -5.1790 ca         1 UJ2      -0.087200
     23 C3          -0.9350    -2.9250    -5.0730 ca         1 UJ2      -0.108000
     24 C25         -0.8380    -0.7920    -3.6650 c          1 UJ2       0.712600
     25 O26         -0.3240    -0.1950    -4.6010 o          1 UJ2      -0.718500
     26 O27         -1.0770    -0.2570    -2.5910 o          1 UJ2      -0.718500
     27 H29         -1.9990    -2.5170    -1.8290 ha         1 UJ2       0.131000
     28 H30         -2.5800    -4.9240    -2.1230 ha         1 UJ2       0.104000
     29 H32         -0.6610    -8.0680    -6.5360 h1         1 UJ2       0.078700
     30 H34         -0.4930    -8.5150   -11.1620 ha         1 UJ2       0.114000
     31 H35         -3.4280    -5.4090   -10.4780 ha         1 UJ2       0.114000
     32 H39         -2.3360    -6.0900   -16.3790 ha         1 UJ2       0.108000
     33 H40         -2.5380    -4.1730   -14.7990 ha         1 UJ2       0.109500
     34 H41         -2.3630    -4.5450   -12.3590 ha         1 UJ2       0.116500
     35 H42         -4.6850    -9.0020    -6.0110 h1         1 UJ2       0.033033
     36 H44         -4.2710    -7.2770    -6.0070 h1         1 UJ2       0.033033
     37 H43         -4.2890    -8.1930    -7.5360 h1         1 UJ2       0.033033
     38 H31         -0.7420    -4.9360    -7.1290 hn         1 UJ2       0.346000
     39 H33         -0.3380    -8.9020    -8.7370 ha         1 UJ2       0.125000
     40 H36         -3.2610    -5.7830    -8.0570 ha         1 UJ2       0.125000
     41 H37         -1.8090    -8.7840   -13.0610 ha         1 UJ2       0.116500
     42 H38         -1.9670    -8.3920   -15.4980 ha         1 UJ2       0.109500
     43 H28         -0.4790    -2.4050    -5.9120 ha         1 UJ2       0.133000
     44 C24         -4.0360    -8.2440    -6.4690 c3         1 UJ2       0.145900
@<TRIPOS>BOND
     1     1     2 ar  
     2     1    23 ar  
     3     1    24 1   
     4     2     3 ar  
     5     2    27 1   
     6     3    12 ar  
     7     3    28 1   
     8     4     5 1   
     9     4    13 2   
    10     4    14 1   
    11     5    15 1   
    12     5    21 1   
    13     5    29 1   
    14     6    16 ar  
    15     6    18 ar  
    16     6    30 1   
    17     7    17 ar  
    18     7    18 ar  
    19     7    31 1   
    20     8    11 ar  
    21     8    18 1   
    22     8    19 ar  
    23     9    10 ar  
    24     9    20 ar  
    25     9    32 1   
    26    10    11 ar  
    27    10    33 1   
    28    11    34 1   
    29    12    13 1   
    30    12    22 ar  
    31    14    22 1   
    32    14    38 1   
    33    15    16 ar  
    34    15    17 ar  
    35    16    39 1   
    36    17    40 1   
    37    19    20 ar  
    38    19    41 1   
    39    20    42 1   
    40    21    44 1   
    41    22    23 ar  
    42    23    43 1   
    43    24    25 1   
    44    24    26 1   
    45    35    44 1   
    46    36    44 1   
    47    37    44 1   
@<TRIPOS>SUBSTRUCTURE
     1 UJ2         1 TEMP              0 ****  ****    0 ROOT
