@<TRIPOS>MOLECULE
UJ3
   51    54     1     0     0
SMALL
No Charge or Current Charge


@<TRIPOS>ATOM
      1 C10         83.6330    81.9650   103.5540 ca         1 UJ3      -0.056300
      2 C15         83.0780    82.0670   104.9570 c5         1 UJ3       0.144300
      3 C17         84.2050    81.5240   100.8620 ca         1 UJ3      -0.191000
      4 C20         92.2100    83.9510   101.1780 c3         1 UJ3      -0.089100
      5 C21         90.6210    82.1790   102.0720 c3         1 UJ3      -0.089100
      6 C24         90.3030    86.9190    98.2730 ca         1 UJ3      -0.091800
      7 C26         90.6630    88.1850    96.2550 ca         1 UJ3       0.148000
      8 C28         90.4990    87.0070    95.4870 ca         1 UJ3      -0.130000
      9 C02         90.1500    86.5610    99.6730 cc         1 UJ3      -0.096400
     10 C03         89.9100    85.1910    99.6400 cd         1 UJ3       0.002900
     11 C04         89.6790    84.2150   100.7720 c3         1 UJ3       0.197900
     12 C06         87.4470    83.3280   101.5300 c          1 UJ3       0.665100
     13 C08         85.1450    82.2080   101.6710 ca         1 UJ3       0.025000
     14 C09         84.8520    82.4310   103.0410 ca         1 UJ3      -0.130000
     15 C11         82.7300    81.3020   102.7500 ca         1 UJ3      -0.196600
     16 C12         81.5480    80.9350   103.5650 c          1 UJ3       0.586600
     17 C16         82.9840    81.0620   101.3950 ca         1 UJ3      -0.006000
     18 C19         90.8650    83.2170   100.9470 c3         1 UJ3      -0.067700
     19 C23         90.1450    85.7780    97.5200 ca         1 UJ3       0.048100
     20 C25         90.5670    88.1550    97.6630 ca         1 UJ3      -0.100000
     21 C29         90.2350    85.7730    96.1230 ca         1 UJ3      -0.081000
     22 F27         90.9160    89.3560    95.6300 f          1 UJ3      -0.181000
     23 N05         88.4040    83.5230   100.5630 ns         1 UJ3      -0.516900
     24 N07         86.3490    82.6350   101.0500 ns         1 UJ3      -0.162000
     25 N14         81.7700    81.3900   104.8470 ns         1 UJ3      -0.523900
     26 O13         80.5510    80.3400   103.1890 o          1 UJ3      -0.549000
     27 O18         87.5810    83.7350   102.6740 o          1 UJ3      -0.618100
     28 O22         89.9050    84.7290    98.3450 os         1 UJ3      -0.176200
     29 H151        83.7400    81.5670   105.6760 h1         1 UJ3       0.061200
     30 H152        82.9720    83.1180   105.2600 h1         1 UJ3       0.061200
     31 H171        84.4220    81.3480    99.8110 ha         1 UJ3       0.111000
     32 H201        93.0300    83.2320   101.2930 hc         1 UJ3       0.039867
     33 H203        92.4590    84.6010   100.3300 hc         1 UJ3       0.039867
     34 H202        92.1670    84.5690   102.0840 hc         1 UJ3       0.039867
     35 H212        91.4850    81.5130   102.1790 hc         1 UJ3       0.039867
     36 H213        90.4540    82.6780   103.0340 hc         1 UJ3       0.039867
     37 H211        89.7490    81.5510   101.8530 hc         1 UJ3       0.039867
     38 H281        90.5780    87.0540    94.4040 ha         1 UJ3       0.135000
     39 H011        90.2470    88.5220   100.5790 hc         1 UJ3       0.047700
     40 H012        89.4010    87.3080   101.5510 hc         1 UJ3       0.047700
     41 H013        91.1710    87.2710   101.4300 hc         1 UJ3       0.047700
     42 H041        89.6060    84.8040   101.6960 h1         1 UJ3       0.093700
     43 H091        85.5390    82.9470   103.7030 ha         1 UJ3       0.156000
     44 H161        82.2620    80.5370   100.7720 ha         1 UJ3       0.134000
     45 H191        90.9620    82.6550   100.0100 hc         1 UJ3       0.055700
     46 H251        90.6950    89.0610    98.2480 ha         1 UJ3       0.139000
     47 H291        90.1070    84.8550    95.5550 ha         1 UJ3       0.133000
     48 H051        88.2060    83.1670    99.6370 hn         1 UJ3       0.315500
     49 H071        86.4110    82.3820   100.0730 hn         1 UJ3       0.148000
     50 H141        81.0810    81.2450   105.5750 hn         1 UJ3       0.332500
     51 C01         90.2480    87.4660   100.8720 c3         1 UJ3      -0.023900
@<TRIPOS>BOND
     1     1     2 1   
     2     1    14 ar  
     3     1    15 ar  
     4     2    25 1   
     5     2    29 1   
     6     2    30 1   
     7     3    13 ar  
     8     3    17 ar  
     9     3    31 1   
    10     4    18 1   
    11     4    32 1   
    12     4    33 1   
    13     4    34 1   
    14     5    18 1   
    15     5    35 1   
    16     5    36 1   
    17     5    37 1   
    18     6     9 1   
    19     6    19 ar  
    20     6    20 ar  
    21     7     8 ar  
    22     7    20 ar  
    23     7    22 1   
    24     8    21 ar  
    25     8    38 1   
    26     9    10 2   
    27     9    51 1   
    28    10    11 1   
    29    10    28 1   
    30    11    18 1   
    31    11    23 1   
    32    11    42 1   
    33    12    23 1   
    34    12    24 1   
    35    12    27 2   
    36    13    14 ar  
    37    13    24 1   
    38    14    43 1   
    39    15    16 1   
    40    15    17 ar  
    41    16    25 1   
    42    16    26 2   
    43    17    44 1   
    44    18    45 1   
    45    19    21 ar  
    46    19    28 1   
    47    20    46 1   
    48    21    47 1   
    49    23    48 1   
    50    24    49 1   
    51    25    50 1   
    52    39    51 1   
    53    40    51 1   
    54    41    51 1   
@<TRIPOS>SUBSTRUCTURE
     1 UJ3         1 TEMP              0 ****  ****    0 ROOT
