@<TRIPOS>MOLECULE
UJ3
   51    54     1     0     0
SMALL
abcg2


@<TRIPOS>ATOM
      1 C10         83.6850    82.7530   102.9550 ca         1 UJ3      -0.056300
      2 C15         82.8760    83.5640   103.9230 c5         1 UJ3       0.144300
      3 C17         84.7180    80.9970   101.1200 ca         1 UJ3      -0.191000
      4 C20         92.5950    83.9370   100.6880 c3         1 UJ3      -0.089100
      5 C21         91.6650    81.8480   101.7100 c3         1 UJ3      -0.089100
      6 C24         89.6230    86.7230    98.8900 ca         1 UJ3      -0.091800
      7 C26         89.2830    88.1690    97.0570 ca         1 UJ3       0.148000
      8 C28         89.2210    87.0960    96.1700 ca         1 UJ3      -0.130000
      9 C02         89.8330    86.1480   100.1920 cc         1 UJ3      -0.096400
     10 C03         89.8860    84.8110    99.9890 cd         1 UJ3       0.002900
     11 C04         90.1030    83.6630   100.9190 c3         1 UJ3       0.197900
     12 C06         87.8180    82.9780   101.4540 c          1 UJ3       0.665100
     13 C08         85.5430    81.9970   101.6690 ca         1 UJ3       0.025000
     14 C09         85.0160    82.8900   102.6100 ca         1 UJ3      -0.130000
     15 C11         82.8780    81.7730   102.4060 ca         1 UJ3      -0.196600
     16 C12         81.5190    81.8910   102.9690 c          1 UJ3       0.586600
     17 C16         83.3910    80.8770   101.4810 ca         1 UJ3      -0.006000
     18 C19         91.4400    82.9410   100.6690 c3         1 UJ3      -0.067700
     19 C23         89.5630    85.6500    98.0020 ca         1 UJ3       0.048100
     20 C25         89.4810    88.0260    98.4120 ca         1 UJ3      -0.100000
     21 C29         89.3610    85.8000    96.6430 ca         1 UJ3      -0.081000
     22 F27         89.1450    89.4100    96.5530 f          1 UJ3      -0.181000
     23 N05         89.0050    82.7200   100.8490 ns         1 UJ3      -0.516900
     24 N07         86.8620    82.0130   101.2330 ns         1 UJ3      -0.162000
     25 N14         81.5810    82.9310   103.8340 ns         1 UJ3      -0.523900
     26 O13         80.5400    81.2070   102.7190 o          1 UJ3      -0.549000
     27 O18         87.6330    83.9680   102.1430 o          1 UJ3      -0.618100
     28 O22         89.7260    84.4890    98.6730 os         1 UJ3      -0.176200
     29 H151        83.2830    83.5150   104.9360 h1         1 UJ3       0.061200
     30 H152        82.8320    84.6180   103.6360 h1         1 UJ3       0.061200
     31 H171        85.1360    80.3090   100.3940 ha         1 UJ3       0.111000
     32 H201        93.5450    83.4150   100.5740 hc         1 UJ3       0.039867
     33 H203        92.5240    84.6700    99.8850 hc         1 UJ3       0.039867
     34 H202        92.6270    84.4810   101.6350 hc         1 UJ3       0.039867
     35 H212        92.6180    81.3490   101.5320 hc         1 UJ3       0.039867
     36 H213        91.6960    82.2720   102.7160 hc         1 UJ3       0.039867
     37 H211        90.8860    81.0870   101.6910 hc         1 UJ3       0.039867
     38 H281        89.0640    87.2800    95.1150 ha         1 UJ3       0.135000
     39 H011        89.1170    87.5730   101.6140 hc         1 UJ3       0.047700
     40 H012        90.0200    86.2430   102.3300 hc         1 UJ3       0.047700
     41 H013        90.8660    87.5210   101.4670 hc         1 UJ3       0.047700
     42 H041        90.1380    84.0700   101.9330 h1         1 UJ3       0.093700
     43 H091        85.6240    83.6590   103.0560 ha         1 UJ3       0.156000
     44 H161        82.7750    80.1010   101.0440 ha         1 UJ3       0.134000
     45 H191        91.4020    82.4760    99.6780 hc         1 UJ3       0.055700
     46 H251        89.5230    88.8870    99.0680 ha         1 UJ3       0.139000
     47 H291        89.3160    84.9530    95.9710 ha         1 UJ3       0.133000
     48 H051        89.0820    81.9700   100.1790 hn         1 UJ3       0.315500
     49 H071        87.1180    81.2430   100.6330 hn         1 UJ3       0.148000
     50 H141        80.7860    83.2450   104.3670 hn         1 UJ3       0.332500
     51 C01         89.9660    86.9040   101.4670 c3         1 UJ3      -0.023900
@<TRIPOS>BOND
     1     1     2 1   
     2     1    14 ar  
     3     1    15 ar  
     4     2    25 1   
     5     2    29 1   
     6     2    30 1   
     7     3    13 ar  
     8     3    17 ar  
     9     3    31 1   
    10     4    18 1   
    11     4    32 1   
    12     4    33 1   
    13     4    34 1   
    14     5    18 1   
    15     5    35 1   
    16     5    36 1   
    17     5    37 1   
    18     6     9 1   
    19     6    19 ar  
    20     6    20 ar  
    21     7     8 ar  
    22     7    20 ar  
    23     7    22 1   
    24     8    21 ar  
    25     8    38 1   
    26     9    10 2   
    27     9    51 1   
    28    10    11 1   
    29    10    28 1   
    30    11    18 1   
    31    11    23 1   
    32    11    42 1   
    33    12    23 1   
    34    12    24 1   
    35    12    27 2   
    36    13    14 ar  
    37    13    24 1   
    38    14    43 1   
    39    15    16 1   
    40    15    17 ar  
    41    16    25 1   
    42    16    26 2   
    43    17    44 1   
    44    18    45 1   
    45    19    21 ar  
    46    19    28 1   
    47    20    46 1   
    48    21    47 1   
    49    23    48 1   
    50    24    49 1   
    51    25    50 1   
    52    39    51 1   
    53    40    51 1   
    54    41    51 1   
@<TRIPOS>SUBSTRUCTURE
     1 UJ3         1 TEMP              0 ****  ****    0 ROOT
