@<TRIPOS>MOLECULE
UJ4
   65    67     1     0     0
SMALL
No Charge or Current Charge


@<TRIPOS>ATOM
      1 N1           7.9590     2.1260    22.7460 ns         1 UJ4      -0.154000
      2 C4           8.0670     1.6300    21.4510 c          1 UJ4       0.592100
      3 C5           8.6120     3.2240    23.3710 ca         1 UJ4      -0.091000
      4 C6          10.0230     3.3590    23.4370 ca         1 UJ4      -0.013300
      5 C7          10.9700     2.2930    22.8990 c3         1 UJ4      -0.054800
      6 C8          10.5810     4.4890    24.0680 ca         1 UJ4      -0.190000
      7 C10         11.6690     6.8500    25.3790 c3         1 UJ4       0.148900
      8 C13          6.9770     0.1600    19.6410 ca         1 UJ4      -0.131300
      9 C15          6.7270    -0.3740    16.9390 ca         1 UJ4       0.340900
     10 C17          6.3290     1.1020    18.8180 ca         1 UJ4      -0.058000
     11 C20         11.0470    -1.3600    22.3790 ca         1 UJ4      -0.093000
     12 C21         11.1680    -1.5170    23.7740 ca         1 UJ4      -0.114300
     13 C22         10.0150    -1.4160    24.5740 ca         1 UJ4      -0.093000
     14 C24         12.5270    -1.8040    24.4170 c3         1 UJ4       0.212600
     15 O1           8.8260     2.1120    20.6140 o          1 UJ4      -0.564100
     16 C12          7.7940     4.1980    23.9720 ca         1 UJ4      -0.089000
     17 C11          8.3620     5.3180    24.6000 ca         1 UJ4      -0.136000
     18 C9           9.7530     5.4740    24.6460 ca         1 UJ4       0.141100
     19 O2          10.2560     6.5960    25.2750 os         1 UJ4      -0.349100
     20 C3           7.1170     0.4350    21.1480 c3         1 UJ4       0.104000
     21 C16          6.2070     0.8270    17.4470 ca         1 UJ4      -0.162000
     22 N2           7.3430    -1.2910    17.7170 nb         1 UJ4      -0.667000
     23 C14          7.4600    -1.0230    19.0390 ca         1 UJ4       0.374900
     24 N            7.3530    -0.7780    21.9960 n          1 UJ4      -0.248400
     25 C2           6.2880    -1.7170    22.1270 c          1 UJ4       0.597100
     26 O            5.1610    -1.4490    21.7270 o          1 UJ4      -0.586100
     27 C1           6.5730    -3.1360    22.6640 c3         1 UJ4      -0.147400
     28 C            7.0850    -4.0620    21.5390 c3         1 UJ4      -0.078100
     29 C18          8.6510    -0.9360    22.6030 ca         1 UJ4      -0.060000
     30 C23          8.7650    -1.1470    23.9910 ca         1 UJ4      -0.103000
     31 C19          9.7980    -1.0850    21.7980 ca         1 UJ4      -0.103000
     32 C25         13.5040    -0.6250    24.2540 c3         1 UJ4      -0.085100
     33 O3          13.1350    -2.9500    23.7920 os         1 UJ4      -0.460000
     34 H1           7.2680     1.6640    23.3230 hn         1 UJ4       0.151000
     35 H2          11.1550     2.4250    21.8270 hc         1 UJ4       0.051367
     36 H3          11.9420     2.3260    23.4050 hc         1 UJ4       0.051367
     37 H4          10.5660     1.2900    23.0600 hc         1 UJ4       0.051367
     38 H5          11.6620     4.5820    24.1100 ha         1 UJ4       0.118000
     39 H6          11.8470     7.7930    25.9100 h1         1 UJ4       0.042700
     40 H7          12.1700     6.0470    25.9340 h1         1 UJ4       0.042700
     41 H8          12.1250     6.9300    24.3840 h1         1 UJ4       0.042700
     42 H9           6.6450    -0.6110    15.8790 h4         1 UJ4       0.018100
     43 H10          5.9310     2.0280    19.2290 ha         1 UJ4       0.112000
     44 H11         11.9240    -1.4570    21.7420 ha         1 UJ4       0.125000
     45 H12         10.0830    -1.5510    25.6520 ha         1 UJ4       0.125000
     46 H13         12.3910    -1.9880    25.4910 h1         1 UJ4       0.037700
     47 H14         13.0040    -5.0210    23.5260 h1         1 UJ4       0.032033
     48 H15         12.3530    -4.4220    25.0670 h1         1 UJ4       0.032033
     49 H16         11.4430    -4.1760    23.5550 h1         1 UJ4       0.032033
     50 H17          6.7110     4.0960    23.9420 ha         1 UJ4       0.115000
     51 H18          7.7200     6.0700    25.0520 ha         1 UJ4       0.131000
     52 H19          6.1400     0.8230    21.4630 h1         1 UJ4       0.062700
     53 H20          5.7170     1.5320    16.7810 ha         1 UJ4       0.123000
     54 H21          7.9520    -1.7950    19.6270 h4         1 UJ4       0.022100
     55 H22          5.6480    -3.5610    23.0720 hc         1 UJ4       0.062200
     56 H23          7.3500    -3.1350    23.4300 hc         1 UJ4       0.062200
     57 H24          7.2380    -5.0790    21.9210 hc         1 UJ4       0.044033
     58 H25          6.3630    -4.1100    20.7150 hc         1 UJ4       0.044033
     59 H26          8.0410    -3.7000    21.1430 hc         1 UJ4       0.044033
     60 H27          7.8850    -1.0820    24.6270 ha         1 UJ4       0.127500
     61 H28          9.7360    -0.9770    20.7200 ha         1 UJ4       0.127500
     62 H29         14.4580    -0.8480    24.7450 hc         1 UJ4       0.047700
     63 H30         13.6980    -0.4150    23.1960 hc         1 UJ4       0.047700
     64 H31         13.0870     0.2790    24.7140 hc         1 UJ4       0.047700
     65 C26         12.4480    -4.2000    23.9960 c3         1 UJ4       0.143900
@<TRIPOS>BOND
     1     1     2 1   
     2     1     3 1   
     3     1    34 1   
     4     2    15 2   
     5     2    20 1   
     6     3     4 ar  
     7     3    16 ar  
     8     4     5 1   
     9     4     6 ar  
    10     5    35 1   
    11     5    36 1   
    12     5    37 1   
    13     6    18 ar  
    14     6    38 1   
    15     7    19 1   
    16     7    39 1   
    17     7    40 1   
    18     7    41 1   
    19     8    10 ar  
    20     8    20 1   
    21     8    23 ar  
    22     9    21 ar  
    23     9    22 ar  
    24     9    42 1   
    25    10    21 ar  
    26    10    43 1   
    27    11    12 ar  
    28    11    31 ar  
    29    11    44 1   
    30    12    13 ar  
    31    12    14 1   
    32    13    30 ar  
    33    13    45 1   
    34    14    32 1   
    35    14    33 1   
    36    14    46 1   
    37    16    17 ar  
    38    16    50 1   
    39    17    18 ar  
    40    17    51 1   
    41    18    19 1   
    42    20    24 1   
    43    20    52 1   
    44    21    53 1   
    45    22    23 ar  
    46    23    54 1   
    47    24    25 1   
    48    24    29 1   
    49    25    26 2   
    50    25    27 1   
    51    27    28 1   
    52    27    55 1   
    53    27    56 1   
    54    28    57 1   
    55    28    58 1   
    56    28    59 1   
    57    29    30 ar  
    58    29    31 ar  
    59    30    60 1   
    60    31    61 1   
    61    32    62 1   
    62    32    63 1   
    63    32    64 1   
    64    33    65 1   
    65    47    65 1   
    66    48    65 1   
    67    49    65 1   
@<TRIPOS>SUBSTRUCTURE
     1 UJ4         1 TEMP              0 ****  ****    0 ROOT
