@<TRIPOS>MOLECULE
UJ4
   65    67     1     0     0
SMALL
abcg2


@<TRIPOS>ATOM
      1 N1           7.9020     2.1050    22.7890 ns         1 UJ4      -0.154000
      2 C4           8.2490     1.3650    21.7140 c          1 UJ4       0.592100
      3 C5           8.5740     3.2970    23.1950 ca         1 UJ4      -0.091000
      4 C6           9.8840     3.2770    23.6760 ca         1 UJ4      -0.013300
      5 C7          10.6620     2.0020    23.8130 c3         1 UJ4      -0.054800
      6 C8          10.4720     4.4900    24.0520 ca         1 UJ4      -0.190000
      7 C10         11.6200     6.9520    24.8200 c3         1 UJ4       0.148900
      8 C13          6.9120     0.4310    19.8630 ca         1 UJ4      -0.131300
      9 C15          6.4530     0.7770    17.1940 ca         1 UJ4       0.340900
     10 C17          5.9310     1.3270    19.4570 ca         1 UJ4      -0.058000
     11 C20         11.2960    -1.6060    22.5260 ca         1 UJ4      -0.093000
     12 C21         11.2450    -1.7050    23.9170 ca         1 UJ4      -0.114300
     13 C22         10.0170    -1.5720    24.5560 ca         1 UJ4      -0.093000
     14 C24         12.5150    -1.9200    24.7170 c3         1 UJ4       0.212600
     15 O1           9.2540     1.5610    21.0460 o          1 UJ4      -0.564100
     16 C12          7.8690     4.4990    23.1210 ca         1 UJ4      -0.089000
     17 C11          8.4520     5.6910    23.5090 ca         1 UJ4      -0.136000
     18 C9           9.7700     5.6900    23.9720 ca         1 UJ4       0.141100
     19 O2          10.2810     6.9000    24.3280 os         1 UJ4      -0.349100
     20 C3           7.2250     0.2750    21.3370 c3         1 UJ4       0.104000
     21 C16          5.6960     1.5060    18.1010 ca         1 UJ4      -0.162000
     22 N2           7.3970    -0.0930    17.5680 nb         1 UJ4      -0.667000
     23 C14          7.6150    -0.2520    18.8760 ca         1 UJ4       0.374900
     24 N            7.7080    -1.0720    21.6880 n          1 UJ4      -0.248400
     25 C2           6.8100    -2.0970    21.5390 c          1 UJ4       0.597100
     26 O            5.6810    -1.8850    21.1050 o          1 UJ4      -0.586100
     27 C1           7.2850    -3.4900    21.9080 c3         1 UJ4      -0.147400
     28 C            6.3860    -4.5870    21.3520 c3         1 UJ4      -0.078100
     29 C18          8.9180    -1.2570    22.4380 ca         1 UJ4      -0.060000
     30 C23          8.8590    -1.3380    23.8240 ca         1 UJ4      -0.103000
     31 C19         10.1420    -1.3890    21.7890 ca         1 UJ4      -0.103000
     32 C25         13.3520    -0.6520    24.7950 c3         1 UJ4      -0.085100
     33 O3          13.3420    -2.9320    24.1430 os         1 UJ4      -0.460000
     34 H1           6.9990     1.9260    23.2050 hn         1 UJ4       0.151000
     35 H2          11.0180     1.6560    22.8420 hc         1 UJ4       0.051367
     36 H3          11.5220     2.1450    24.4660 hc         1 UJ4       0.051367
     37 H4          10.0430     1.2040    24.2210 hc         1 UJ4       0.051367
     38 H5          11.4860     4.4720    24.4250 ha         1 UJ4       0.118000
     39 H6          11.8150     7.9970    25.0420 h1         1 UJ4       0.042700
     40 H7          11.7260     6.3560    25.7300 h1         1 UJ4       0.042700
     41 H8          12.3290     6.5970    24.0680 h1         1 UJ4       0.042700
     42 H9           6.2950     0.8910    16.1270 h4         1 UJ4       0.018100
     43 H10          5.3560     1.8760    20.1940 ha         1 UJ4       0.112000
     44 H11         12.2450    -1.7150    22.0180 ha         1 UJ4       0.125000
     45 H12          9.9630    -1.6500    25.6360 ha         1 UJ4       0.125000
     46 H13         12.2330    -2.2310    25.7310 h1         1 UJ4       0.037700
     47 H14         13.5200    -4.9260    23.8150 h1         1 UJ4       0.032033
     48 H15         12.5820    -4.5060    25.2720 h1         1 UJ4       0.032033
     49 H16         11.8550    -4.3170    23.6570 h1         1 UJ4       0.032033
     50 H17          6.8520     4.4900    22.7480 ha         1 UJ4       0.115000
     51 H18          7.9070     6.6240    23.4520 ha         1 UJ4       0.131000
     52 H19          6.3020     0.4530    21.8910 h1         1 UJ4       0.062700
     53 H20          4.9370     2.1940    17.7510 ha         1 UJ4       0.123000
     54 H21          8.3790    -0.9690    19.1520 h4         1 UJ4       0.022100
     55 H22          7.3270    -3.5530    22.9990 hc         1 UJ4       0.062200
     56 H23          8.3120    -3.6180    21.5650 hc         1 UJ4       0.062200
     57 H24          6.7700    -5.5640    21.6490 hc         1 UJ4       0.044033
     58 H25          5.3670    -4.4900    21.7260 hc         1 UJ4       0.044033
     59 H26          6.3490    -4.5510    20.2620 hc         1 UJ4       0.044033
     60 H27          7.9040    -1.2360    24.3230 ha         1 UJ4       0.127500
     61 H28         10.1850    -1.3250    20.7110 ha         1 UJ4       0.127500
     62 H29         14.2510    -0.8310    25.3860 hc         1 UJ4       0.047700
     63 H30         13.6420    -0.3270    23.7940 hc         1 UJ4       0.047700
     64 H31         12.7770     0.1480    25.2620 hc         1 UJ4       0.047700
     65 C26         12.7860    -4.2360    24.2290 c3         1 UJ4       0.143900
@<TRIPOS>BOND
     1     1     2 1   
     2     1     3 1   
     3     1    34 1   
     4     2    15 2   
     5     2    20 1   
     6     3     4 ar  
     7     3    16 ar  
     8     4     5 1   
     9     4     6 ar  
    10     5    35 1   
    11     5    36 1   
    12     5    37 1   
    13     6    18 ar  
    14     6    38 1   
    15     7    19 1   
    16     7    39 1   
    17     7    40 1   
    18     7    41 1   
    19     8    10 ar  
    20     8    20 1   
    21     8    23 ar  
    22     9    21 ar  
    23     9    22 ar  
    24     9    42 1   
    25    10    21 ar  
    26    10    43 1   
    27    11    12 ar  
    28    11    31 ar  
    29    11    44 1   
    30    12    13 ar  
    31    12    14 1   
    32    13    30 ar  
    33    13    45 1   
    34    14    32 1   
    35    14    33 1   
    36    14    46 1   
    37    16    17 ar  
    38    16    50 1   
    39    17    18 ar  
    40    17    51 1   
    41    18    19 1   
    42    20    24 1   
    43    20    52 1   
    44    21    53 1   
    45    22    23 ar  
    46    23    54 1   
    47    24    25 1   
    48    24    29 1   
    49    25    26 2   
    50    25    27 1   
    51    27    28 1   
    52    27    55 1   
    53    27    56 1   
    54    28    57 1   
    55    28    58 1   
    56    28    59 1   
    57    29    30 ar  
    58    29    31 ar  
    59    30    60 1   
    60    31    61 1   
    61    32    62 1   
    62    32    63 1   
    63    32    64 1   
    64    33    65 1   
    65    47    65 1   
    66    48    65 1   
    67    49    65 1   
@<TRIPOS>SUBSTRUCTURE
     1 UJ4         1 TEMP              0 ****  ****    0 ROOT
