@<TRIPOS>MOLECULE
UJ5
   43    45     1     0     0
SMALL
No Charge or Current Charge


@<TRIPOS>ATOM
      1 C4           4.9790     8.3970   -10.7570 cc         1 UJ5       0.329800
      2 C6           6.5500     6.9290   -11.0130 ca         1 UJ5       0.042400
      3 C7           5.5170     6.2720   -10.4150 ca         1 UJ5      -0.086200
      4 C10          6.7550     4.1940   -10.3730 ca         1 UJ5      -0.112600
      5 C13          6.8720     2.7150   -10.0290 c          1 UJ5       0.712600
      6 C17          4.6770    10.7150   -13.0250 ca         1 UJ5      -0.081000
      7 C20          2.0300    10.3630   -13.8840 ca         1 UJ5      -0.115500
      8 C21          2.4110     9.9570   -12.5940 ca         1 UJ5      -0.081000
      9 C24          3.2970    10.5970   -17.2530 c3         1 UJ5      -0.083600
     10 O2           4.8610    10.7610   -10.1020 os         1 UJ5      -0.433000
     11 C3           4.1450     9.6780   -10.7480 c3         1 UJ5       0.220300
     12 N5           6.2380     8.2660   -11.2380 nd         1 UJ5      -0.568100
     13 C12          7.7370     6.2560   -11.3220 ca         1 UJ5      -0.098000
     14 C11          7.8350     4.8830   -10.9990 ca         1 UJ5      -0.097000
     15 N8           4.5200     7.1800   -10.2460 na         1 UJ5      -0.316600
     16 C9           5.5680     4.9150   -10.0770 ca         1 UJ5      -0.107000
     17 O14          5.9220     2.1620    -9.4930 o          1 UJ5      -0.719000
     18 O15          7.9110     2.1300   -10.3010 o          1 UJ5      -0.719000
     19 C16          3.7370    10.1300   -12.1520 ca         1 UJ5      -0.077300
     20 C18          4.2960    11.1210   -14.3150 ca         1 UJ5      -0.115500
     21 C19          2.9680    10.9490   -14.7570 ca         1 UJ5      -0.074300
     22 C23          2.6990    12.9130   -16.3490 c3         1 UJ5      -0.083600
     23 H34          5.7060    10.8530   -12.7020 ha         1 UJ5       0.121500
     24 H36          1.0000    10.2200   -14.2040 ha         1 UJ5       0.106000
     25 H37          1.6700     9.5050   -11.9370 ha         1 UJ5       0.121500
     26 H38          1.4770    11.1640   -16.2920 hc         1 UJ5       0.043700
     27 H42          3.1530     9.5190   -17.1140 hc         1 UJ5       0.032867
     28 H44          2.9240    10.8640   -18.2490 hc         1 UJ5       0.032867
     29 H43          4.3720    10.8070   -17.2240 hc         1 UJ5       0.032867
     30 H26          5.6230    11.4610    -8.2860 h1         1 UJ5       0.031700
     31 H25          4.1760    10.4400    -8.1450 h1         1 UJ5       0.031700
     32 H27          5.7560     9.7060    -8.5190 h1         1 UJ5       0.031700
     33 H28          3.2250     9.4740   -10.1840 h1         1 UJ5       0.028700
     34 H32          8.5630     6.7760   -11.7990 ha         1 UJ5       0.104000
     35 H31          8.7560     4.3550   -11.2370 ha         1 UJ5       0.131000
     36 H29          3.6110     7.0150    -9.8310 hn         1 UJ5       0.342000
     37 H30          4.7170     4.4330    -9.6000 ha         1 UJ5       0.132000
     38 H35          5.0380    11.5700   -14.9700 ha         1 UJ5       0.106000
     39 H40          2.1380    13.4540   -15.5780 hc         1 UJ5       0.032867
     40 H39          3.7510    13.2150   -16.2850 hc         1 UJ5       0.032867
     41 H41          2.3150    13.2220   -17.3290 hc         1 UJ5       0.032867
     42 C1           5.1150    10.5790    -8.6970 c3         1 UJ5       0.147900
     43 C22          2.5430    11.3880   -16.1600 c3         1 UJ5      -0.014400
@<TRIPOS>BOND
     1     1    11 1   
     2     1    12 2   
     3     1    15 1   
     4     2     3 ar  
     5     2    12 1   
     6     2    13 ar  
     7     3    15 1   
     8     3    16 ar  
     9     4     5 1   
    10     4    14 ar  
    11     4    16 ar  
    12     5    17 1   
    13     5    18 1   
    14     6    19 ar  
    15     6    20 ar  
    16     6    23 1   
    17     7     8 ar  
    18     7    21 ar  
    19     7    24 1   
    20     8    19 ar  
    21     8    25 1   
    22     9    27 1   
    23     9    28 1   
    24     9    29 1   
    25     9    43 1   
    26    10    11 1   
    27    10    42 1   
    28    11    19 1   
    29    11    33 1   
    30    13    14 ar  
    31    13    34 1   
    32    14    35 1   
    33    15    36 1   
    34    16    37 1   
    35    20    21 ar  
    36    20    38 1   
    37    21    43 1   
    38    22    39 1   
    39    22    40 1   
    40    22    41 1   
    41    22    43 1   
    42    26    43 1   
    43    30    42 1   
    44    31    42 1   
    45    32    42 1   
@<TRIPOS>SUBSTRUCTURE
     1 UJ5         1 TEMP              0 ****  ****    0 ROOT
