@<TRIPOS>MOLECULE
UJ5
   43    45     1     0     0
SMALL
abcg2


@<TRIPOS>ATOM
      1 C4           5.0270     8.5310   -10.6410 cc         1 UJ5       0.329800
      2 C6           6.5940     7.1040   -10.8200 ca         1 UJ5       0.042400
      3 C7           5.4190     6.3690   -10.5950 ca         1 UJ5      -0.086200
      4 C10          6.6060     4.3140   -10.6710 ca         1 UJ5      -0.112600
      5 C13          6.6460     2.7890   -10.5950 c          1 UJ5       0.712600
      6 C17          4.7160    10.6640   -12.9500 ca         1 UJ5      -0.081000
      7 C20          2.0950    10.2680   -13.7360 ca         1 UJ5      -0.115500
      8 C21          2.4870     9.9580   -12.4390 ca         1 UJ5      -0.081000
      9 C24          3.3390    10.3540   -17.1080 c3         1 UJ5      -0.083600
     10 O2           4.9560    10.8740   -10.1030 os         1 UJ5      -0.433000
     11 C3           4.2240     9.8060   -10.6260 c3         1 UJ5       0.220300
     12 N5           6.3130     8.4500   -10.8450 nd         1 UJ5      -0.568100
     13 C12          7.8020     6.4250   -10.9740 ca         1 UJ5      -0.098000
     14 C11          7.7870     5.0450   -10.9000 ca         1 UJ5      -0.097000
     15 N8           4.4370     7.3210   -10.4840 na         1 UJ5      -0.316600
     16 C9           5.4000     4.9840   -10.5140 ca         1 UJ5      -0.107000
     17 O14          5.5670     2.2140   -10.3550 o          1 UJ5      -0.719000
     18 O15          7.7550     2.2510   -10.7820 o          1 UJ5      -0.719000
     19 C16          3.7990    10.1540   -12.0330 ca         1 UJ5      -0.077300
     20 C18          4.3180    10.9800   -14.2380 ca         1 UJ5      -0.115500
     21 C19          2.9990    10.7880   -14.6550 ca         1 UJ5      -0.074300
     22 C23          2.6810    12.6490   -16.3050 c3         1 UJ5      -0.083600
     23 H34          5.7490    10.8150   -12.6620 ha         1 UJ5       0.121500
     24 H36          1.0650    10.1100   -14.0320 ha         1 UJ5       0.106000
     25 H37          1.7590     9.5650   -11.7390 ha         1 UJ5       0.121500
     26 H38          1.5070    10.8740   -16.1480 hc         1 UJ5       0.043700
     27 H42          3.2360     9.2800   -16.9550 hc         1 UJ5       0.032867
     28 H44          2.9720    10.5870   -18.1090 hc         1 UJ5       0.032867
     29 H43          4.4040    10.5960   -17.0840 hc         1 UJ5       0.032867
     30 H26          5.7270    11.6830    -8.4180 h1         1 UJ5       0.031700
     31 H25          4.2780    10.7000    -8.1430 h1         1 UJ5       0.031700
     32 H27          5.8390     9.9180    -8.4670 h1         1 UJ5       0.031700
     33 H28          3.3170     9.6210   -10.0270 h1         1 UJ5       0.028700
     34 H32          8.7240     6.9660   -11.1480 ha         1 UJ5       0.104000
     35 H31          8.7130     4.4980   -11.0180 ha         1 UJ5       0.131000
     36 H29          3.4570     7.1570   -10.3050 hn         1 UJ5       0.342000
     37 H30          4.4840     4.4370   -10.3350 ha         1 UJ5       0.132000
     38 H35          5.0500    11.3810   -14.9290 ha         1 UJ5       0.106000
     39 H40          2.1050    13.2200   -15.5760 hc         1 UJ5       0.032867
     40 H39          3.7200    12.9810   -16.2440 hc         1 UJ5       0.032867
     41 H41          2.3110    12.9040   -17.2990 hc         1 UJ5       0.032867
     42 C1           5.2070    10.7750    -8.7190 c3         1 UJ5       0.147900
     43 C22          2.5630    11.1450   -16.0560 c3         1 UJ5      -0.014400
@<TRIPOS>BOND
     1     1    11 1   
     2     1    12 2   
     3     1    15 1   
     4     2     3 ar  
     5     2    12 1   
     6     2    13 ar  
     7     3    15 1   
     8     3    16 ar  
     9     4     5 1   
    10     4    14 ar  
    11     4    16 ar  
    12     5    17 1   
    13     5    18 1   
    14     6    19 ar  
    15     6    20 ar  
    16     6    23 1   
    17     7     8 ar  
    18     7    21 ar  
    19     7    24 1   
    20     8    19 ar  
    21     8    25 1   
    22     9    27 1   
    23     9    28 1   
    24     9    29 1   
    25     9    43 1   
    26    10    11 1   
    27    10    42 1   
    28    11    19 1   
    29    11    33 1   
    30    13    14 ar  
    31    13    34 1   
    32    14    35 1   
    33    15    36 1   
    34    16    37 1   
    35    20    21 ar  
    36    20    38 1   
    37    21    43 1   
    38    22    39 1   
    39    22    40 1   
    40    22    41 1   
    41    22    43 1   
    42    26    43 1   
    43    30    42 1   
    44    31    42 1   
    45    32    42 1   
@<TRIPOS>SUBSTRUCTURE
     1 UJ5         1 TEMP              0 ****  ****    0 ROOT
