@<TRIPOS>MOLECULE
UJ6
   35    38     1     0     0
SMALL
No Charge or Current Charge


@<TRIPOS>ATOM
      1 O1           0.7780    -2.4450    -1.2520 o          1 UJ6      -0.531000
      2 C2           1.5950    -1.6940    -0.7340 c          1 UJ6       0.560000
      3 C3           1.4820    -0.1780    -0.3410 c5         1 UJ6      -0.093400
      4 C4           0.6130     0.0210     0.9280 c3         1 UJ6       0.003900
      5 C5          -0.8700    -0.2870     0.7230 ca         1 UJ6      -0.069300
      6 C6          -1.3760    -1.5430     1.1480 ca         1 UJ6      -0.114000
      7 C7          -2.7350    -1.8720     0.9760 ca         1 UJ6      -0.128000
      8 C8          -3.5670    -0.9260     0.3710 ca         1 UJ6       0.028100
      9 O9          -4.8970    -1.0730     0.1450 os         1 UJ6      -0.371100
     10 C10         -5.2380     0.1600    -0.5800 c5         1 UJ6       0.370600
     11 O11         -4.0770     1.0620    -0.5760 os         1 UJ6      -0.316100
     12 C12         -3.0950     0.2890    -0.0410 ca         1 UJ6       0.066100
     13 C13         -1.7490     0.6570     0.1190 ca         1 UJ6      -0.097600
     14 C14         -1.2900     2.0120    -0.3410 c          1 UJ6       0.719600
     15 O15         -1.1630     2.8930     0.4980 o          1 UJ6      -0.710500
     16 O16         -1.0470     2.1660    -1.5300 o          1 UJ6      -0.710500
     17 C17          2.9390     0.2180    -0.1100 ca         1 UJ6      -0.119300
     18 C18          3.7480    -0.8920    -0.2190 ca         1 UJ6      -0.037000
     19 N19          2.9350    -1.9680    -0.5490 ns         1 UJ6      -0.160000
     20 C20          5.1330    -0.8400    -0.0370 ca         1 UJ6      -0.166000
     21 C21          5.7040     0.4110     0.2760 ca         1 UJ6      -0.094000
     22 C22          4.8850     1.5590     0.3940 ca         1 UJ6      -0.152000
     23 C23          3.4880     1.4710     0.2020 ca         1 UJ6      -0.041000
     24 H3           0.9990     0.3540    -1.1660 hc         1 UJ6       0.134700
     25 H4           1.0140    -0.5980     1.7400 hc         1 UJ6       0.059200
     26 H4A          0.7240     1.0520     1.2850 hc         1 UJ6       0.059200
     27 H6          -0.7110    -2.2680     1.6120 ha         1 UJ6       0.097000
     28 H7          -3.1270    -2.8320     1.3030 ha         1 UJ6       0.108000
     29 H10         -5.4850    -0.0950    -1.6170 h2         1 UJ6       0.042200
     30 H10A        -6.0900     0.6520    -0.0970 h2         1 UJ6       0.042200
     31 HN19         3.3300    -2.8650    -0.7990 hn         1 UJ6       0.153000
     32 H20          5.7490    -1.7310    -0.1360 ha         1 UJ6       0.105000
     33 H21          6.7790     0.4930     0.4250 ha         1 UJ6       0.097000
     34 H22          5.3350     2.5190     0.6370 ha         1 UJ6       0.108000
     35 H23          2.8550     2.3520     0.2970 ha         1 UJ6       0.159000
@<TRIPOS>BOND
     1     1     2 2   
     2     2     3 1   
     3     2    19 1   
     4     3     4 1   
     5     3    17 1   
     6     3    24 1   
     7     4     5 1   
     8     4    25 1   
     9     4    26 1   
    10     5     6 ar  
    11     5    13 ar  
    12     6     7 ar  
    13     6    27 1   
    14     7     8 ar  
    15     7    28 1   
    16     8     9 1   
    17     8    12 ar  
    18     9    10 1   
    19    10    11 1   
    20    10    29 1   
    21    10    30 1   
    22    11    12 1   
    23    12    13 ar  
    24    13    14 1   
    25    14    15 1   
    26    14    16 1   
    27    17    18 ar  
    28    17    23 ar  
    29    18    19 1   
    30    18    20 ar  
    31    19    31 1   
    32    20    21 ar  
    33    20    32 1   
    34    21    22 ar  
    35    21    33 1   
    36    22    23 ar  
    37    22    34 1   
    38    23    35 1   
@<TRIPOS>SUBSTRUCTURE
     1 UJ6         1 TEMP              0 ****  ****    0 ROOT
