@<TRIPOS>MOLECULE
UJ6
   35    38     1     0     0
SMALL
abcg2


@<TRIPOS>ATOM
      1 O1           0.8700    -2.6370    -0.9010 o          1 UJ6      -0.531000
      2 C2           1.6980    -1.7900    -0.6390 c          1 UJ6       0.560000
      3 C3           1.4410    -0.3430    -0.2280 c5         1 UJ6      -0.093400
      4 C4           0.5890    -0.2520     1.0550 c3         1 UJ6       0.003900
      5 C5          -0.8850    -0.4280     0.8180 ca         1 UJ6      -0.069300
      6 C6          -1.5140    -1.5890     1.2470 ca         1 UJ6      -0.114000
      7 C7          -2.8810    -1.8210     1.0570 ca         1 UJ6      -0.128000
      8 C8          -3.5760    -0.8420     0.3950 ca         1 UJ6       0.028100
      9 O9          -4.9020    -0.7910     0.1060 os         1 UJ6      -0.371100
     10 C10         -5.0710     0.3370    -0.7410 c5         1 UJ6       0.370600
     11 O11         -3.8870     1.1110    -0.6430 os         1 UJ6      -0.316100
     12 C12         -2.9540     0.3070    -0.0640 ca         1 UJ6       0.066100
     13 C13         -1.6190     0.5720     0.1380 ca         1 UJ6      -0.097600
     14 C14         -1.0080     1.8710    -0.3730 c          1 UJ6       0.719600
     15 O15         -0.3550     2.5460     0.4440 o          1 UJ6      -0.710500
     16 O16         -1.2310     2.1400    -1.5670 o          1 UJ6      -0.710500
     17 C17          2.8270     0.2000    -0.0590 ca         1 UJ6      -0.119300
     18 C18          3.7410    -0.8210    -0.3080 ca         1 UJ6      -0.037000
     19 N19          3.0480    -1.9770    -0.6430 ns         1 UJ6      -0.160000
     20 C20          5.1060    -0.6180    -0.2170 ca         1 UJ6      -0.166000
     21 C21          5.5430     0.6580     0.1360 ca         1 UJ6      -0.094000
     22 C22          4.6430     1.6860     0.3850 ca         1 UJ6      -0.152000
     23 C23          3.2700     1.4590     0.2880 ca         1 UJ6      -0.041000
     24 H3           0.9220     0.1600    -1.0500 hc         1 UJ6       0.134700
     25 H4           0.9430    -0.9920     1.7760 hc         1 UJ6       0.059200
     26 H4A          0.7680     0.7280     1.4930 hc         1 UJ6       0.059200
     27 H6          -0.9260    -2.3470     1.7480 ha         1 UJ6       0.097000
     28 H7          -3.3560    -2.7240     1.4160 ha         1 UJ6       0.108000
     29 H10         -5.2180     0.0060    -1.7750 h2         1 UJ6       0.042200
     30 H10A        -5.9270     0.9250    -0.4060 h2         1 UJ6       0.042200
     31 HN19         3.4820    -2.8590    -0.8720 hn         1 UJ6       0.153000
     32 H20          5.8120    -1.4150    -0.4100 ha         1 UJ6       0.105000
     33 H21          6.6060     0.8460     0.2160 ha         1 UJ6       0.097000
     34 H22          5.0090     2.6680     0.6560 ha         1 UJ6       0.108000
     35 H23          2.5600     2.2560     0.4770 ha         1 UJ6       0.159000
@<TRIPOS>BOND
     1     1     2 2   
     2     2     3 1   
     3     2    19 1   
     4     3     4 1   
     5     3    17 1   
     6     3    24 1   
     7     4     5 1   
     8     4    25 1   
     9     4    26 1   
    10     5     6 ar  
    11     5    13 ar  
    12     6     7 ar  
    13     6    27 1   
    14     7     8 ar  
    15     7    28 1   
    16     8     9 1   
    17     8    12 ar  
    18     9    10 1   
    19    10    11 1   
    20    10    29 1   
    21    10    30 1   
    22    11    12 1   
    23    12    13 ar  
    24    13    14 1   
    25    14    15 1   
    26    14    16 1   
    27    17    18 ar  
    28    17    23 ar  
    29    18    19 1   
    30    18    20 ar  
    31    19    31 1   
    32    20    21 ar  
    33    20    32 1   
    34    21    22 ar  
    35    21    33 1   
    36    22    23 ar  
    37    22    34 1   
    38    23    35 1   
@<TRIPOS>SUBSTRUCTURE
     1 UJ6         1 TEMP              0 ****  ****    0 ROOT
