@<TRIPOS>MOLECULE
UJ7
   93    98     1     0     0
SMALL
No Charge or Current Charge


@<TRIPOS>ATOM
      1 N1           1.9980    -3.6570    12.4450 nh         1 UJ7      -0.742600
      2 C2           0.6270    -4.2140    12.6250 c6         1 UJ7       0.227800
      3 C3           2.4650    -3.5500    11.0280 c6         1 UJ7       0.217800
      4 C4          -0.3150    -3.7470    11.4820 c6         1 UJ7       0.004700
      5 C10         -0.4110    -0.0770    12.7980 c3         1 UJ7       0.178300
      6 C11          0.3420     0.3900    14.0090 cc         1 UJ7      -0.254300
      7 S12         -0.3640     0.2790    15.6220 ss         1 UJ7       0.267000
      8 C14          2.0350     1.2370    15.3790 cd         1 UJ7      -0.137000
      9 C15          1.6100     0.9140    14.0620 cd         1 UJ7      -0.127000
     10 C17         -0.2410    -5.3120     7.8020 c3         1 UJ7       0.123500
     11 C19         -0.9590    -6.6290     7.3970 c3         1 UJ7      -0.073400
     12 N20         -0.4160    -4.3300     6.6820 n7         1 UJ7      -0.860400
     13 C21          0.4060    -3.1020     6.7070 c6         1 UJ7       0.165500
     14 C22         -0.2620    -1.9930     5.8540 c6         1 UJ7      -0.070900
     15 C24          2.0320    -0.9650     5.3730 c6         1 UJ7      -0.072400
     16 C25          2.7010    -2.0860     6.2070 c6         1 UJ7      -0.076400
     17 C26          1.8460    -3.3770     6.1910 c6         1 UJ7      -0.070900
     18 C28         -1.7460    -9.0060     7.9590 c6         1 UJ7      -0.071900
     19 C31          0.6190    -9.4330     9.7240 c6         1 UJ7      -0.073400
     20 C35          3.0250    -2.3490    15.5450 c5         1 UJ7       0.184600
     21 C36          4.1040    -1.7800    14.5640 c5         1 UJ7       0.121500
     22 C38          5.5970    -1.9640    14.9350 c3         1 UJ7      -0.079100
     23 C39          3.6270    -3.4620    16.4220 ca         1 UJ7      -0.093300
     24 C40          3.7840    -4.7910    15.9620 ca         1 UJ7      -0.094000
     25 C42          4.7630    -5.4470    18.0940 ca         1 UJ7      -0.106000
     26 C5           1.6350    -4.3950    10.0140 c6         1 UJ7       0.095000
     27 N6           0.1490    -4.2650    10.1480 n          1 UJ7      -0.395800
     28 C7          -0.6190    -2.2170    11.4990 c          1 UJ7       0.599100
     29 O9          -1.2010    -1.6600    10.5760 o          1 UJ7      -0.596100
     30 C13          1.0960     0.9570    16.3400 cc         1 UJ7      -0.255000
     31 C16         -0.7710    -4.7590     9.1850 c          1 UJ7       0.566100
     32 O18         -1.9770    -4.7240     9.4180 o          1 UJ7      -0.614100
     33 C23          0.5860    -0.6940     5.8560 c6         1 UJ7      -0.076400
     34 C27         -0.8830    -7.8010     8.4300 c6         1 UJ7      -0.060700
     35 C29         -1.7050   -10.1700     8.9790 c6         1 UJ7      -0.073400
     36 C30         -0.2500   -10.6220     9.2510 c6         1 UJ7      -0.074400
     37 C32          0.5770    -8.2650     8.7080 c6         1 UJ7      -0.071900
     38 C33          2.6640    -3.0070    13.4610 c2         1 UJ7       0.809500
     39 O34          2.0310    -2.8810    14.6580 os         1 UJ7      -0.468600
     40 N37          3.8060    -2.4560    13.2800 n2         1 UJ7      -0.715900
     41 C41          4.3490    -5.7740    16.7930 ca         1 UJ7      -0.112500
     42 C43          4.6080    -4.1340    18.5650 ca         1 UJ7      -0.112500
     43 C44          4.0430    -3.1500    17.7350 ca         1 UJ7      -0.094000
     44 H1           0.1830    -3.9380    13.5920 h1         1 UJ7       0.070700
     45 H2           0.6770    -5.3130    12.6210 h1         1 UJ7       0.070700
     46 H3           3.5170    -3.8600    10.9520 h1         1 UJ7       0.070700
     47 H4           2.4240    -2.4970    10.7130 h1         1 UJ7       0.070700
     48 H5          -1.2860    -4.2060    11.7120 h1         1 UJ7       0.071700
     49 H6           0.2910    -2.0060    13.3270 hn         1 UJ7       0.316500
     50 H7          -1.4820     0.1460    12.9090 h1         1 UJ7       0.063200
     51 H8          -0.0390     0.4470    11.9060 h1         1 UJ7       0.063200
     52 H9           3.0100     1.6620    15.6030 ha         1 UJ7       0.130000
     53 H10          2.2320     1.0640    13.1830 ha         1 UJ7       0.126000
     54 H11          0.8200    -5.5590     7.9070 h1         1 UJ7       0.068700
     55 H12         -2.0130    -6.3980     7.1950 hc         1 UJ7       0.058700
     56 H13         -0.5390    -6.9660     6.4410 hc         1 UJ7       0.058700
     57 H14         -1.4050    -4.0520     6.6790 hn         1 UJ7       0.427000
     58 H16          0.4620    -2.7290     7.7410 h1         1 UJ7       0.050700
     59 H17         -1.2650    -1.7730     6.2440 hc         1 UJ7       0.039950
     60 H18         -0.3950    -2.3430     4.8210 hc         1 UJ7       0.039950
     61 H19          2.0190    -1.2530     4.3120 hc         1 UJ7       0.037200
     62 H20          2.6270    -0.0440     5.4390 hc         1 UJ7       0.037200
     63 H21          3.7040    -2.2970     5.8110 hc         1 UJ7       0.043700
     64 H22          2.8380    -1.7450     7.2430 hc         1 UJ7       0.043700
     65 H23          2.3370    -4.1480     6.7970 hc         1 UJ7       0.039950
     66 H24          1.8020    -3.7750     5.1680 hc         1 UJ7       0.039950
     67 H25         -2.7880    -8.6870     7.8130 hc         1 UJ7       0.038450
     68 H26         -1.3910    -9.3610     6.9810 hc         1 UJ7       0.038450
     69 H27          1.6570    -9.7650     9.8670 hc         1 UJ7       0.037700
     70 H28          0.2660    -9.0840    10.7040 hc         1 UJ7       0.037700
     71 H29          2.5770    -1.5610    16.1650 h1         1 UJ7       0.076700
     72 H30          3.9400    -0.7010    14.4410 h1         1 UJ7       0.065700
     73 H31          5.8160    -1.5170    15.9120 hc         1 UJ7       0.042367
     74 H32          5.8850    -3.0220    14.9710 hc         1 UJ7       0.042367
     75 H33          6.2420    -1.4730    14.1960 hc         1 UJ7       0.042367
     76 H34          3.4750    -5.0710    14.9590 ha         1 UJ7       0.116000
     77 H35          5.2020    -6.2090    18.7350 ha         1 UJ7       0.113000
     78 H36          1.9030    -5.4530    10.1460 h1         1 UJ7       0.056200
     79 H37          1.9470    -4.1000     9.0060 h1         1 UJ7       0.056200
     80 H38          1.1490     1.0970    17.4120 h4         1 UJ7       0.146000
     81 H39          0.1140     0.0610     5.2130 hc         1 UJ7       0.043700
     82 H40          0.6090    -0.2700     6.8700 hc         1 UJ7       0.043700
     83 H41         -1.3140    -7.4300     9.3700 hc         1 UJ7       0.047700
     84 H42         -2.1770    -9.8550     9.9200 hc         1 UJ7       0.037700
     85 H43         -2.2950   -11.0170     8.6030 hc         1 UJ7       0.037700
     86 H44          0.1800   -11.0570     8.3380 hc         1 UJ7       0.039200
     87 H45         -0.2410   -11.4170    10.0100 hc         1 UJ7       0.039200
     88 H46          1.0550    -8.5760     7.7680 hc         1 UJ7       0.038450
     89 H47          1.1760    -7.4350     9.1030 hc         1 UJ7       0.038450
     90 H48          4.4670    -6.7920    16.4260 ha         1 UJ7       0.113000
     91 H49          4.9280    -3.8770    19.5730 ha         1 UJ7       0.113000
     92 H50          3.9330    -2.1360    18.1130 ha         1 UJ7       0.116000
     93 N8          -0.2360    -1.5090    12.6200 ns         1 UJ7      -0.485900
@<TRIPOS>BOND
     1     1     2 1   
     2     1     3 1   
     3     1    38 1   
     4     2     4 1   
     5     2    44 1   
     6     2    45 1   
     7     3    26 1   
     8     3    46 1   
     9     3    47 1   
    10     4    27 1   
    11     4    28 1   
    12     4    48 1   
    13     5     6 1   
    14     5    50 1   
    15     5    51 1   
    16     5    93 1   
    17     6     7 1   
    18     6     9 2   
    19     7    30 1   
    20     8     9 1   
    21     8    30 2   
    22     8    52 1   
    23     9    53 1   
    24    10    11 1   
    25    10    12 1   
    26    10    31 1   
    27    10    54 1   
    28    11    34 1   
    29    11    55 1   
    30    11    56 1   
    31    12    13 1   
    32    12    57 1   
    33    13    14 1   
    34    13    17 1   
    35    13    58 1   
    36    14    33 1   
    37    14    59 1   
    38    14    60 1   
    39    15    16 1   
    40    15    33 1   
    41    15    61 1   
    42    15    62 1   
    43    16    17 1   
    44    16    63 1   
    45    16    64 1   
    46    17    65 1   
    47    17    66 1   
    48    18    34 1   
    49    18    35 1   
    50    18    67 1   
    51    18    68 1   
    52    19    36 1   
    53    19    37 1   
    54    19    69 1   
    55    19    70 1   
    56    20    21 1   
    57    20    23 1   
    58    20    39 1   
    59    20    71 1   
    60    21    22 1   
    61    21    40 1   
    62    21    72 1   
    63    22    73 1   
    64    22    74 1   
    65    22    75 1   
    66    23    24 ar  
    67    23    43 ar  
    68    24    41 ar  
    69    24    76 1   
    70    25    41 ar  
    71    25    42 ar  
    72    25    77 1   
    73    26    27 1   
    74    26    78 1   
    75    26    79 1   
    76    27    31 1   
    77    28    29 2   
    78    28    93 1   
    79    30    80 1   
    80    31    32 2   
    81    33    81 1   
    82    33    82 1   
    83    34    37 1   
    84    34    83 1   
    85    35    36 1   
    86    35    84 1   
    87    35    85 1   
    88    36    86 1   
    89    36    87 1   
    90    37    88 1   
    91    37    89 1   
    92    38    39 1   
    93    38    40 2   
    94    41    90 1   
    95    42    43 ar  
    96    42    91 1   
    97    43    92 1   
    98    49    93 1   
@<TRIPOS>SUBSTRUCTURE
     1 UJ7         1 TEMP              0 ****  ****    0 ROOT
