@<TRIPOS>MOLECULE
UJ7
   93    98     1     0     0
SMALL
abcg2


@<TRIPOS>ATOM
      1 N1           3.0830    -4.6180    12.2970 nh         1 UJ7      -0.742600
      2 C2           1.8910    -5.1250    12.9360 c6         1 UJ7       0.227800
      3 C3           3.1770    -4.8090    10.8590 c6         1 UJ7       0.217800
      4 C4           0.6310    -4.6450    12.2110 c6         1 UJ7       0.004700
      5 C10         -0.6380    -1.3890    13.6940 c3         1 UJ7       0.178300
      6 C11         -1.6210    -0.7580    12.7550 cc         1 UJ7      -0.254300
      7 S12         -1.1960    -0.3180    11.1440 ss         1 UJ7       0.267000
      8 C14         -3.5960     0.1150    11.8910 cd         1 UJ7      -0.137000
      9 C15         -2.9290    -0.4670    13.0040 cd         1 UJ7      -0.127000
     10 C17         -0.3530    -4.8840     8.5200 c3         1 UJ7       0.123500
     11 C19         -1.4850    -5.8650     8.2000 c3         1 UJ7      -0.073400
     12 N20         -0.5830    -3.6480     7.7940 n7         1 UJ7      -0.860400
     13 C21          0.3660    -2.5680     8.0450 c6         1 UJ7       0.165500
     14 C22         -0.2010    -1.2650     7.4890 c6         1 UJ7      -0.070900
     15 C24          2.1310    -0.3760     7.1380 c6         1 UJ7      -0.072400
     16 C25          2.6910    -1.6900     7.6680 c6         1 UJ7      -0.076400
     17 C26          1.7280    -2.8470     7.4160 c6         1 UJ7      -0.070900
     18 C28         -2.7130    -7.9970     8.6470 c6         1 UJ7      -0.071900
     19 C31         -0.2010    -9.4360     9.1080 c6         1 UJ7      -0.073400
     20 C35          4.6230    -2.4390    14.5490 c5         1 UJ7       0.184600
     21 C36          5.4040    -2.1470    13.2220 c5         1 UJ7       0.121500
     22 C38          6.9150    -2.2640    13.3030 c3         1 UJ7      -0.079100
     23 C39          5.4350    -3.0160    15.6740 ca         1 UJ7      -0.093300
     24 C40          5.7020    -4.3790    15.7730 ca         1 UJ7      -0.094000
     25 C42          7.0420    -3.9980    17.7380 ca         1 UJ7      -0.106000
     26 C5           1.9730    -5.5870    10.3610 c6         1 UJ7       0.095000
     27 N6           0.7370    -4.9580    10.7940 n          1 UJ7      -0.395800
     28 C7           0.4800    -3.1390    12.4140 c          1 UJ7       0.599100
     29 O9           1.1520    -2.3360    11.7840 o          1 UJ7      -0.596100
     30 C13         -2.7760     0.2570    10.8130 cc         1 UJ7      -0.255000
     31 C16         -0.3310    -4.6310    10.0320 c          1 UJ7       0.566100
     32 O18         -1.3070    -4.1040    10.5520 o          1 UJ7      -0.614100
     33 C23          0.7500    -0.0960     7.7210 c6         1 UJ7      -0.076400
     34 C27         -1.4150    -7.2250     8.8910 c6         1 UJ7      -0.060700
     35 C29         -2.7020    -9.3680     9.3150 c6         1 UJ7      -0.073400
     36 C30         -1.5020   -10.1930     8.8650 c6         1 UJ7      -0.074400
     37 C32         -0.2200    -8.0650     8.4390 c6         1 UJ7      -0.071900
     38 C33          3.8730    -3.6760    12.8480 c2         1 UJ7       0.809500
     39 O34          3.6150    -3.3650    14.1330 os         1 UJ7      -0.468600
     40 N37          4.8390    -3.0840    12.2670 n2         1 UJ7      -0.715900
     41 C41          6.5000    -4.8660    16.7980 ca         1 UJ7      -0.112500
     42 C43          6.7770    -2.6390    17.6480 ca         1 UJ7      -0.112500
     43 C44          5.9740    -2.1540    16.6250 ca         1 UJ7      -0.094000
     44 H1           1.8460    -4.8130    13.9760 h1         1 UJ7       0.070700
     45 H2           1.9060    -6.2180    12.9450 h1         1 UJ7       0.070700
     46 H3           4.0870    -5.3550    10.5950 h1         1 UJ7       0.070700
     47 H4           3.2160    -3.8410    10.3530 h1         1 UJ7       0.070700
     48 H5          -0.2230    -5.1710    12.6490 h1         1 UJ7       0.071700
     49 H6          -0.9980    -3.4660    13.7670 hn         1 UJ7       0.316500
     50 H7           0.3020    -0.8370    13.7090 h1         1 UJ7       0.063200
     51 H8          -1.0480    -1.3450    14.7020 h1         1 UJ7       0.063200
     52 H9          -4.6340     0.4130    11.8950 ha         1 UJ7       0.130000
     53 H10         -3.4000    -0.6600    13.9590 ha         1 UJ7       0.126000
     54 H11          0.5820    -5.3140     8.1640 h1         1 UJ7       0.068700
     55 H12         -2.4330    -5.3850     8.4640 hc         1 UJ7       0.058700
     56 H13         -1.5000    -6.0120     7.1160 hc         1 UJ7       0.058700
     57 H14         -1.5130    -3.3140     8.0240 hn         1 UJ7       0.427000
     58 H16          0.5290    -2.4120     9.1240 h1         1 UJ7       0.050700
     59 H17         -1.1690    -1.0560     7.9560 hc         1 UJ7       0.039950
     60 H18         -0.3860    -1.3870     6.4160 hc         1 UJ7       0.039950
     61 H19          2.0600    -0.4280     6.0460 hc         1 UJ7       0.037200
     62 H20          2.8120     0.4480     7.3670 hc         1 UJ7       0.037200
     63 H21          3.6590    -1.9050     7.2100 hc         1 UJ7       0.043700
     64 H22          2.8700    -1.6010     8.7460 hc         1 UJ7       0.043700
     65 H23          2.1620    -3.7700     7.8110 hc         1 UJ7       0.039950
     66 H24          1.5970    -2.9980     6.3380 hc         1 UJ7       0.039950
     67 H25         -3.5630    -7.4110     9.0070 hc         1 UJ7       0.038450
     68 H26         -2.8550    -8.1200     7.5660 hc         1 UJ7       0.038450
     69 H27          0.6510   -10.0160     8.7450 hc         1 UJ7       0.037700
     70 H28         -0.0530    -9.3080    10.1860 hc         1 UJ7       0.037700
     71 H29          4.1220    -1.5340    14.8990 h1         1 UJ7       0.076700
     72 H30          5.1690    -1.1240    12.9070 h1         1 UJ7       0.065700
     73 H31          7.3320    -1.5540    14.0180 hc         1 UJ7       0.042367
     74 H32          7.2310    -3.2660    13.5960 hc         1 UJ7       0.042367
     75 H33          7.3490    -2.0440    12.3280 hc         1 UJ7       0.042367
     76 H34          5.2880    -5.0750    15.0530 ha         1 UJ7       0.116000
     77 H35          7.6640    -4.3810    18.5370 ha         1 UJ7       0.113000
     78 H36          2.0090    -6.6250    10.7020 h1         1 UJ7       0.056200
     79 H37          2.0300    -5.6170     9.2780 h1         1 UJ7       0.056200
     80 H38         -3.0190     0.6640     9.8430 h4         1 UJ7       0.146000
     81 H39          0.3310     0.8170     7.2910 hc         1 UJ7       0.043700
     82 H40          0.8430     0.0850     8.7970 hc         1 UJ7       0.043700
     83 H41         -1.3300    -7.0730     9.9760 hc         1 UJ7       0.047700
     84 H42         -2.6630    -9.2370    10.4020 hc         1 UJ7       0.037700
     85 H43         -3.6330    -9.8980     9.1000 hc         1 UJ7       0.037700
     86 H44         -1.5960   -10.4140     7.7960 hc         1 UJ7       0.039200
     87 H45         -1.4850   -11.1550     9.3820 hc         1 UJ7       0.039200
     88 H46         -0.2700    -8.1920     7.3510 hc         1 UJ7       0.038450
     89 H47          0.7210    -7.5500     8.6460 hc         1 UJ7       0.038450
     90 H48          6.6990    -5.9280    16.8630 ha         1 UJ7       0.113000
     91 H49          7.1870    -1.9550    18.3800 ha         1 UJ7       0.113000
     92 H50          5.7630    -1.0920    16.5650 ha         1 UJ7       0.116000
     93 N8          -0.3650    -2.7780    13.3900 ns         1 UJ7      -0.485900
@<TRIPOS>BOND
     1     1     2 1   
     2     1     3 1   
     3     1    38 1   
     4     2     4 1   
     5     2    44 1   
     6     2    45 1   
     7     3    26 1   
     8     3    46 1   
     9     3    47 1   
    10     4    27 1   
    11     4    28 1   
    12     4    48 1   
    13     5     6 1   
    14     5    50 1   
    15     5    51 1   
    16     5    93 1   
    17     6     7 1   
    18     6     9 2   
    19     7    30 1   
    20     8     9 1   
    21     8    30 2   
    22     8    52 1   
    23     9    53 1   
    24    10    11 1   
    25    10    12 1   
    26    10    31 1   
    27    10    54 1   
    28    11    34 1   
    29    11    55 1   
    30    11    56 1   
    31    12    13 1   
    32    12    57 1   
    33    13    14 1   
    34    13    17 1   
    35    13    58 1   
    36    14    33 1   
    37    14    59 1   
    38    14    60 1   
    39    15    16 1   
    40    15    33 1   
    41    15    61 1   
    42    15    62 1   
    43    16    17 1   
    44    16    63 1   
    45    16    64 1   
    46    17    65 1   
    47    17    66 1   
    48    18    34 1   
    49    18    35 1   
    50    18    67 1   
    51    18    68 1   
    52    19    36 1   
    53    19    37 1   
    54    19    69 1   
    55    19    70 1   
    56    20    21 1   
    57    20    23 1   
    58    20    39 1   
    59    20    71 1   
    60    21    22 1   
    61    21    40 1   
    62    21    72 1   
    63    22    73 1   
    64    22    74 1   
    65    22    75 1   
    66    23    24 ar  
    67    23    43 ar  
    68    24    41 ar  
    69    24    76 1   
    70    25    41 ar  
    71    25    42 ar  
    72    25    77 1   
    73    26    27 1   
    74    26    78 1   
    75    26    79 1   
    76    27    31 1   
    77    28    29 2   
    78    28    93 1   
    79    30    80 1   
    80    31    32 2   
    81    33    81 1   
    82    33    82 1   
    83    34    37 1   
    84    34    83 1   
    85    35    36 1   
    86    35    84 1   
    87    35    85 1   
    88    36    86 1   
    89    36    87 1   
    90    37    88 1   
    91    37    89 1   
    92    38    39 1   
    93    38    40 2   
    94    41    90 1   
    95    42    43 ar  
    96    42    91 1   
    97    43    92 1   
    98    49    93 1   
@<TRIPOS>SUBSTRUCTURE
     1 UJ7         1 TEMP              0 ****  ****    0 ROOT
