@<TRIPOS>MOLECULE
UJ8
   38    40     1     0     0
SMALL
bcc


@<TRIPOS>ATOM
      1 C4          -5.8150    -8.5190    -8.1570 ca         1 UJ8      -0.061300
      2 C5          -4.4290    -8.5690    -8.0660 ca         1 UJ8      -0.129500
      3 C6          -3.7680    -8.1440    -6.9210 ca         1 UJ8      -0.097500
      4 C7          -4.4790    -7.6510    -5.8360 ca         1 UJ8      -0.090300
      5 C8          -5.8680    -7.5880    -5.9200 ca         1 UJ8      -0.097500
      6 C10         -3.7450    -7.1580    -4.6110 c3         1 UJ8       0.187100
      7 C15         -2.6040    -2.4660    -5.5840 ca         1 UJ8      -0.066000
      8 C17         -4.2630    -1.2200    -4.3180 ca         1 UJ8      -0.111000
      9 C2          -6.5310    -9.0130    -9.3920 c3         1 UJ8      -0.018400
     10 C1          -7.3880   -10.2390    -9.0750 c3         1 UJ8      -0.084100
     11 C3          -7.3660    -7.9140   -10.0460 c3         1 UJ8      -0.084100
     12 C9          -6.5220    -8.0180    -7.0630 ca         1 UJ8      -0.129500
     13 O11         -4.4040    -7.6270    -3.4650 oh         1 UJ8      -0.592800
     14 C12         -3.6900    -5.6540    -4.6400 cc         1 UJ8       0.370800
     15 N13         -2.8310    -4.9560    -5.3280 nd         1 UJ8      -0.569100
     16 C14         -3.1790    -3.6430    -5.1060 ca         1 UJ8       0.068400
     17 C16         -3.1580    -1.2640    -5.1810 ca         1 UJ8      -0.154000
     18 C18         -4.8480    -2.3770    -3.8330 ca         1 UJ8      -0.134000
     19 C19         -4.2870    -3.5800    -4.2450 ca         1 UJ8      -0.079200
     20 N20         -4.5880    -4.8890    -3.9730 na         1 UJ8      -0.254300
     21 H28         -3.8530    -8.9540    -8.9000 ha         1 UJ8       0.130500
     22 H29         -2.6870    -8.2040    -6.8740 ha         1 UJ8       0.133500
     23 H30         -6.4510    -7.2030    -5.0930 ha         1 UJ8       0.133500
     24 H32         -2.7090    -7.5130    -4.6650 h1         1 UJ8       0.069700
     25 H36         -4.6680    -0.2600    -4.0260 ha         1 UJ8       0.130000
     26 H24         -5.7640    -9.3200   -10.1110 hc         1 UJ8       0.049700
     27 H23         -6.7920   -11.0400    -8.6390 hc         1 UJ8       0.035200
     28 H22         -8.1850    -9.9930    -8.3710 hc         1 UJ8       0.035200
     29 H21         -7.8570   -10.6240    -9.9820 hc         1 UJ8       0.035200
     30 H26         -6.7520    -7.0530   -10.3160 hc         1 UJ8       0.035200
     31 H25         -7.8400    -8.2830   -10.9560 hc         1 UJ8       0.035200
     32 H27         -8.1590    -7.5630    -9.3830 hc         1 UJ8       0.035200
     33 H31         -7.6040    -7.9620    -7.0980 ha         1 UJ8       0.130500
     34 H33         -3.8540    -7.4490    -2.6940 ho         1 UJ8       0.413000
     35 H35         -2.7310    -0.3350    -5.5360 ha         1 UJ8       0.131000
     36 H37         -5.7000    -2.3420    -3.1670 ha         1 UJ8       0.134000
     37 H38         -5.3170    -5.2280    -3.3650 hn         1 UJ8       0.313700
     38 H34         -1.7500    -2.4960    -6.2480 ha         1 UJ8       0.146000
@<TRIPOS>BOND
     1     1     2 ar  
     2     1     9 1   
     3     1    12 ar  
     4     2     3 ar  
     5     2    21 1   
     6     3     4 ar  
     7     3    22 1   
     8     4     5 ar  
     9     4     6 1   
    10     5    12 ar  
    11     5    23 1   
    12     6    13 1   
    13     6    14 1   
    14     6    24 1   
    15     7    16 ar  
    16     7    17 ar  
    17     7    38 1   
    18     8    17 ar  
    19     8    18 ar  
    20     8    25 1   
    21     9    10 1   
    22     9    11 1   
    23     9    26 1   
    24    10    27 1   
    25    10    28 1   
    26    10    29 1   
    27    11    30 1   
    28    11    31 1   
    29    11    32 1   
    30    12    33 1   
    31    13    34 1   
    32    14    15 2   
    33    14    20 1   
    34    15    16 1   
    35    16    19 ar  
    36    17    35 1   
    37    18    19 ar  
    38    18    36 1   
    39    19    20 1   
    40    20    37 1   
@<TRIPOS>SUBSTRUCTURE
     1 UJ8         1 TEMP              0 ****  ****    0 ROOT
