@<TRIPOS>MOLECULE
UJ8
   38    40     1     0     0
SMALL
No Charge or Current Charge


@<TRIPOS>ATOM
      1 C4          -5.8770    -8.6150    -8.1750 ca         1 UJ8      -0.061300
      2 C5          -4.4690    -8.6250    -8.1570 ca         1 UJ8      -0.111500
      3 C6          -3.7650    -8.1440    -7.0390 ca         1 UJ8      -0.079500
      4 C7          -4.4560    -7.6460    -5.9170 ca         1 UJ8      -0.090300
      5 C8          -5.8660    -7.6340    -5.9360 ca         1 UJ8      -0.079500
      6 C10         -3.6780    -7.1100    -4.7130 c3         1 UJ8       0.210300
      7 C15         -2.3440    -2.3250    -5.1490 ca         1 UJ8      -0.048000
      8 C17         -4.2860    -1.0910    -4.2890 ca         1 UJ8      -0.093000
      9 C2          -6.6340    -9.1400    -9.3970 c3         1 UJ8      -0.018400
     10 C1          -7.5030   -10.3670    -9.0420 c3         1 UJ8      -0.084100
     11 C3          -7.4680    -8.0250   -10.0680 c3         1 UJ8      -0.084100
     12 C9          -6.5690    -8.1150    -7.0540 ca         1 UJ8      -0.111500
     13 O11         -4.2180    -7.6650    -3.4920 oh         1 UJ8      -0.655000
     14 C12         -3.6420    -5.5850    -4.6920 cc         1 UJ8       0.370800
     15 N13         -2.6040    -4.8240    -5.1070 nd         1 UJ8      -0.569100
     16 C14         -3.0340    -3.5180    -4.8890 ca         1 UJ8       0.068400
     17 C16         -2.9830    -1.1020    -4.8430 ca         1 UJ8      -0.136000
     18 C18         -4.9590    -2.3050    -4.0350 ca         1 UJ8      -0.116000
     19 C19         -4.2890    -3.4920    -4.3540 ca         1 UJ8      -0.079200
     20 N20         -4.6850    -4.7860    -4.2200 na         1 UJ8      -0.304600
     21 H28         -3.9130    -9.0040    -9.0120 ha         1 UJ8       0.112500
     22 H29         -2.6770    -8.1570    -7.0500 ha         1 UJ8       0.115500
     23 H30         -6.4210    -7.2530    -5.0810 ha         1 UJ8       0.115500
     24 H32         -2.6370    -7.4450    -4.8200 h1         1 UJ8       0.069700
     25 H36         -4.7690    -0.1450    -4.0570 ha         1 UJ8       0.112000
     26 H24         -5.9060    -9.4780   -10.1450 hc         1 UJ8       0.049700
     27 H23         -6.8870   -11.1540    -8.5890 hc         1 UJ8       0.035200
     28 H22         -8.2960   -10.1010    -8.3340 hc         1 UJ8       0.035200
     29 H21         -7.9730   -10.7810    -9.9420 hc         1 UJ8       0.035200
     30 H26         -6.8290    -7.1750   -10.3320 hc         1 UJ8       0.035200
     31 H25         -7.9390    -8.3950   -10.9870 hc         1 UJ8       0.035200
     32 H27         -8.2600    -7.6660    -9.4000 hc         1 UJ8       0.035200
     33 H31         -7.6570    -8.0960    -7.0440 ha         1 UJ8       0.112500
     34 H33         -3.6120    -7.4010    -2.7640 ho         1 UJ8       0.452000
     35 H35         -2.4690    -0.1620    -5.0350 ha         1 UJ8       0.113000
     36 H37         -5.9600    -2.3150    -3.6100 ha         1 UJ8       0.116000
     37 H38         -5.5590    -5.1240    -3.8390 hn         1 UJ8       0.364000
     38 H34         -1.3440    -2.3430    -5.5740 ha         1 UJ8       0.128000
@<TRIPOS>BOND
     1     1     2 ar  
     2     1     9 1   
     3     1    12 ar  
     4     2     3 ar  
     5     2    21 1   
     6     3     4 ar  
     7     3    22 1   
     8     4     5 ar  
     9     4     6 1   
    10     5    12 ar  
    11     5    23 1   
    12     6    13 1   
    13     6    14 1   
    14     6    24 1   
    15     7    16 ar  
    16     7    17 ar  
    17     7    38 1   
    18     8    17 ar  
    19     8    18 ar  
    20     8    25 1   
    21     9    10 1   
    22     9    11 1   
    23     9    26 1   
    24    10    27 1   
    25    10    28 1   
    26    10    29 1   
    27    11    30 1   
    28    11    31 1   
    29    11    32 1   
    30    12    33 1   
    31    13    34 1   
    32    14    15 2   
    33    14    20 1   
    34    15    16 1   
    35    16    19 ar  
    36    17    35 1   
    37    18    19 ar  
    38    18    36 1   
    39    19    20 1   
    40    20    37 1   
@<TRIPOS>SUBSTRUCTURE
     1 UJ8         1 TEMP              0 ****  ****    0 ROOT
