@<TRIPOS>MOLECULE
UJA
   84    89     1     0     0
SMALL
No Charge or Current Charge


@<TRIPOS>ATOM
      1 C2           0.5930    -4.0190    12.8080 c6         1 UJA       0.232800
      2 N1           2.0510    -3.7680    12.6330 nh         1 UJA      -0.740600
      3 C3           2.5340    -3.6130    11.2270 c6         1 UJA       0.223800
      4 C4          -0.2380    -3.5100    11.5970 c6         1 UJA       0.013700
      5 C5           1.6660    -4.3940    10.1950 c6         1 UJA       0.096000
      6 N6           0.1890    -4.1820    10.3210 n          1 UJA      -0.395800
      7 C7          -0.3320    -1.9590    11.4740 c          1 UJA       0.595100
      8 N8           0.1530    -1.2020    12.5220 ns         1 UJA      -0.489900
      9 O9          -0.8390    -1.4260    10.4940 o          1 UJA      -0.591100
     10 C10          0.0990     0.2540    12.5920 c3         1 UJA       0.178300
     11 C11         -1.1170     0.7150    13.3400 cc         1 UJA      -0.255300
     12 S12         -2.5760     1.2110    12.4840 ss         1 UJA       0.266000
     13 C13         -3.3940     1.5440    14.0080 cc         1 UJA      -0.253000
     14 C14         -2.5740     1.2790    15.0760 cd         1 UJA      -0.137000
     15 C15         -1.2880     0.8100    14.6990 cd         1 UJA      -0.127000
     16 C16         -0.7570    -4.6990     9.3970 c          1 UJA       0.566100
     17 C17         -0.2610    -5.3120     8.0280 c3         1 UJA       0.122500
     18 O18         -1.9570    -4.6220     9.6450 o          1 UJA      -0.611100
     19 C19         -1.0160    -6.6230     7.6760 c3         1 UJA      -0.073400
     20 N20         -0.4340    -4.3630     6.8800 n7         1 UJA      -0.858400
     21 C21         -0.9110    -7.7800     8.7220 c6         1 UJA      -0.060700
     22 C22          0.4020    -3.1450     6.8650 c6         1 UJA       0.164500
     23 C23         -1.8220    -8.9730     8.3150 c6         1 UJA      -0.071900
     24 C24         -1.7500   -10.1270     9.3460 c6         1 UJA      -0.073400
     25 C25         -0.2930   -10.6050     9.5490 c6         1 UJA      -0.074400
     26 C26          0.6250    -9.4280     9.9570 c6         1 UJA      -0.073400
     27 C27          0.5520    -8.2730     8.9290 c6         1 UJA      -0.071900
     28 C28         -0.2610    -2.0500     5.9910 c6         1 UJA      -0.071400
     29 C29          0.5990    -0.7610     5.9590 c6         1 UJA      -0.076400
     30 C30          2.0380    -1.0570     5.4690 c6         1 UJA      -0.072400
     31 C31          2.7030    -2.1670     6.3190 c6         1 UJA      -0.076400
     32 C32          1.8340    -3.4490     6.3430 c6         1 UJA      -0.071400
     33 C33          2.9160    -3.7710    13.6990 cc         1 UJA       0.792500
     34 N34          4.2310    -3.5350    13.6120 nd         1 UJA      -0.654100
     35 C35          4.6060    -3.6300    14.9330 ca         1 UJA       0.113400
     36 C36          3.5240    -3.9060    15.7180 ca         1 UJA       0.006100
     37 O37          2.4030    -4.0050    14.9660 os         1 UJA      -0.307700
     38 C38          5.8830    -3.4800    15.4890 ca         1 UJA      -0.067000
     39 C39          6.0200    -3.6230    16.8860 ca         1 UJA       0.118000
     40 C40          4.8940    -3.9090    17.6940 ca         1 UJA      -0.111000
     41 C41          3.6180    -4.0540    17.1080 ca         1 UJA      -0.073000
     42 Cl4          7.6040    -3.4440    17.6300 cl         1 UJA      -0.204000
     43 H1           0.2160    -3.5600    13.7340 h1         1 UJA       0.068200
     44 H2           0.4250    -5.1010    12.9120 h1         1 UJA       0.068200
     45 H3           3.5730    -3.9580    11.1260 h1         1 UJA       0.076200
     46 H4           2.5300    -2.5470    10.9550 h1         1 UJA       0.076200
     47 H5          -1.2710    -3.8060    11.8220 h1         1 UJA       0.075700
     48 H6           1.8740    -5.4660    10.3120 h1         1 UJA       0.059200
     49 H7           1.9970    -4.1000     9.1920 h1         1 UJA       0.059200
     50 H8           0.5980    -1.6960    13.2850 hn         1 UJA       0.316500
     51 H9           0.1030     0.6800    11.5790 h1         1 UJA       0.064700
     52 H10          1.0010     0.6140    13.1060 h1         1 UJA       0.064700
     53 H11         -4.4130     1.9070    13.9990 h4         1 UJA       0.147000
     54 H12         -2.8800     1.4140    16.1100 ha         1 UJA       0.131000
     55 H13         -0.5150     0.5510    15.4180 ha         1 UJA       0.126000
     56 H14          0.7970    -5.5760     8.1230 h1         1 UJA       0.067700
     57 H15         -2.0730    -6.3790     7.5160 hc         1 UJA       0.059700
     58 H16         -0.6450    -6.9830     6.7080 hc         1 UJA       0.059700
     59 H17         -1.4190    -4.0710     6.8800 hn         1 UJA       0.428000
     60 H19         -1.2830    -7.3840     9.6780 hc         1 UJA       0.046700
     61 H20          0.4740    -2.7450     7.8880 h1         1 UJA       0.048700
     62 H21         -2.8630    -8.6350     8.2210 hc         1 UJA       0.038700
     63 H22         -1.5270    -9.3470     7.3250 hc         1 UJA       0.038700
     64 H23         -2.1670    -9.7920    10.3060 hc         1 UJA       0.037950
     65 H24         -2.3740   -10.9660     9.0100 hc         1 UJA       0.037950
     66 H25          0.0800   -11.0610     8.6210 hc         1 UJA       0.039200
     67 H26         -0.2600   -11.3890    10.3180 hc         1 UJA       0.039200
     68 H27          1.6620    -9.7800    10.0490 hc         1 UJA       0.037950
     69 H28          0.3330    -9.0580    10.9500 hc         1 UJA       0.037950
     70 H29          0.9720    -8.6070     7.9700 hc         1 UJA       0.038700
     71 H30          1.1900    -7.4520     9.2780 hc         1 UJA       0.038700
     72 H31         -1.2600    -1.8120     6.3820 hc         1 UJA       0.040200
     73 H32         -0.4050    -2.4220     4.9670 hc         1 UJA       0.040200
     74 H33          0.6350    -0.3170     6.9640 hc         1 UJA       0.043450
     75 H34          0.1280    -0.0140     5.3060 hc         1 UJA       0.043450
     76 H35          2.0120    -1.3660     4.4140 hc         1 UJA       0.038200
     77 H36          2.6430    -0.1410     5.5100 hc         1 UJA       0.038200
     78 H37          3.6990    -2.3990     5.9160 hc         1 UJA       0.043450
     79 H38          2.8580    -1.8060     7.3460 hc         1 UJA       0.043450
     80 H39          1.7770    -3.8720     5.3310 hc         1 UJA       0.040200
     81 H40          2.3220    -4.2100     6.9650 hc         1 UJA       0.040200
     82 H41          6.7420    -3.2610    14.8610 ha         1 UJA       0.147000
     83 H42          5.0130    -4.0160    18.7690 ha         1 UJA       0.133000
     84 H43          2.7400    -4.2740    17.7100 ha         1 UJA       0.133000
@<TRIPOS>BOND
     1     1     2 1   
     2     1     4 1   
     3     1    43 1   
     4     1    44 1   
     5     2     3 1   
     6     2    33 1   
     7     3     5 1   
     8     3    45 1   
     9     3    46 1   
    10     4     6 1   
    11     4     7 1   
    12     4    47 1   
    13     5     6 1   
    14     5    48 1   
    15     5    49 1   
    16     6    16 1   
    17     7     8 1   
    18     7     9 2   
    19     8    10 1   
    20     8    50 1   
    21    10    11 1   
    22    10    51 1   
    23    10    52 1   
    24    11    12 1   
    25    11    15 2   
    26    12    13 1   
    27    13    14 2   
    28    13    53 1   
    29    14    15 1   
    30    14    54 1   
    31    15    55 1   
    32    16    17 1   
    33    16    18 2   
    34    17    19 1   
    35    17    20 1   
    36    17    56 1   
    37    19    21 1   
    38    19    57 1   
    39    19    58 1   
    40    20    22 1   
    41    20    59 1   
    42    21    23 1   
    43    21    27 1   
    44    21    60 1   
    45    22    28 1   
    46    22    32 1   
    47    22    61 1   
    48    23    24 1   
    49    23    62 1   
    50    23    63 1   
    51    24    25 1   
    52    24    64 1   
    53    24    65 1   
    54    25    26 1   
    55    25    66 1   
    56    25    67 1   
    57    26    27 1   
    58    26    68 1   
    59    26    69 1   
    60    27    70 1   
    61    27    71 1   
    62    28    29 1   
    63    28    72 1   
    64    28    73 1   
    65    29    30 1   
    66    29    74 1   
    67    29    75 1   
    68    30    31 1   
    69    30    76 1   
    70    30    77 1   
    71    31    32 1   
    72    31    78 1   
    73    31    79 1   
    74    32    80 1   
    75    32    81 1   
    76    33    34 2   
    77    33    37 1   
    78    34    35 1   
    79    35    36 ar  
    80    35    38 ar  
    81    36    37 1   
    82    36    41 ar  
    83    38    39 ar  
    84    38    82 1   
    85    39    40 ar  
    86    39    42 1   
    87    40    41 ar  
    88    40    83 1   
    89    41    84 1   
@<TRIPOS>SUBSTRUCTURE
     1 UJA         1 TEMP              0 ****  ****    0 ROOT
