@<TRIPOS>MOLECULE
UJA
   84    89     1     0     0
SMALL
abcg2


@<TRIPOS>ATOM
      1 C2           1.5900    -5.0380    13.1210 c6         1 UJA       0.232800
      2 N1           2.8320    -4.5550    12.5560 nh         1 UJA      -0.740600
      3 C3           3.0260    -4.7190    11.1240 c6         1 UJA       0.223800
      4 C4           0.4000    -4.5860    12.2730 c6         1 UJA       0.013700
      5 C5           1.8920    -5.5460    10.5530 c6         1 UJA       0.096000
      6 N6           0.6040    -4.9630    10.8850 n          1 UJA      -0.395800
      7 C7           0.2420    -3.0700    12.3950 c          1 UJA       0.595100
      8 N8          -0.6370    -2.6630    13.3210 ns         1 UJA      -0.489900
      9 O9           0.9330    -2.2990    11.7470 o          1 UJA      -0.591100
     10 C10         -0.9040    -1.2620    13.5650 c3         1 UJA       0.178300
     11 C11         -1.8590    -0.6580    12.5810 cc         1 UJA      -0.255300
     12 S12         -1.4110    -0.3430    10.9470 ss         1 UJA       0.266000
     13 C13         -2.9670     0.2700    10.5700 cc         1 UJA      -0.253000
     14 C14         -3.7940     0.2330    11.6490 cd         1 UJA      -0.137000
     15 C15         -3.1560    -0.3000    12.8020 cd         1 UJA      -0.127000
     16 C16         -0.4180    -4.7030    10.0380 c          1 UJA       0.566100
     17 C17         -0.3230    -5.0190     8.5400 c3         1 UJA       0.122500
     18 O18         -1.4440    -4.1870    10.4670 o          1 UJA      -0.611100
     19 C19         -1.3810    -6.0650     8.1810 c3         1 UJA      -0.073400
     20 N20         -0.5500    -3.8220     7.7500 n7         1 UJA      -0.858400
     21 C21         -1.2730    -7.4080     8.9020 c6         1 UJA      -0.060700
     22 C22          0.3670    -2.7130     7.9930 c6         1 UJA       0.164500
     23 C23         -2.5180    -8.2490     8.6180 c6         1 UJA      -0.071900
     24 C24         -2.4670    -9.6060     9.3120 c6         1 UJA      -0.073400
     25 C25         -1.2060   -10.3760     8.9340 c6         1 UJA      -0.074400
     26 C26          0.0430    -9.5490     9.2130 c6         1 UJA      -0.073400
     27 C27         -0.0180    -8.1920     8.5160 c6         1 UJA      -0.071900
     28 C28         -0.2200    -1.4400     7.3900 c6         1 UJA      -0.071400
     29 C29          0.6990    -0.2410     7.6020 c6         1 UJA      -0.076400
     30 C30          2.0960    -0.5060     7.0510 c6         1 UJA      -0.072400
     31 C31          2.6780    -1.7890     7.6320 c6         1 UJA      -0.076400
     32 C32          1.7480    -2.9770     7.3980 c6         1 UJA      -0.071400
     33 C33          3.7550    -3.8850    13.2420 cc         1 UJA       0.792500
     34 N34          4.8480    -3.3720    12.7610 nd         1 UJA      -0.654100
     35 C35          5.4690    -2.8250    13.8620 ca         1 UJA       0.113400
     36 C36          4.6790    -3.0450    14.9880 ca         1 UJA       0.006100
     37 O37          3.5740    -3.7290    14.5720 os         1 UJA      -0.307700
     38 C38          6.6740    -2.1490    13.9890 ca         1 UJA      -0.067000
     39 C39          7.0210    -1.7310    15.2680 ca         1 UJA       0.118000
     40 C40          6.2210    -1.9560    16.3850 ca         1 UJA      -0.111000
     41 C41          5.0100    -2.6320    16.2550 ca         1 UJA      -0.073000
     42 CL4          8.5250    -0.8880    15.4830 cl         1 UJA      -0.204000
     43 H1           1.4570    -4.6680    14.1350 h1         1 UJA       0.068200
     44 H2           1.5970    -6.1290    13.1850 h1         1 UJA       0.068200
     45 H3           3.9720    -5.2260    10.9240 h1         1 UJA       0.076200
     46 H4           3.0570    -3.7440    10.6320 h1         1 UJA       0.076200
     47 H5          -0.4860    -5.0890    12.6710 h1         1 UJA       0.075700
     48 H6           1.9490    -6.5770    10.9130 h1         1 UJA       0.059200
     49 H7           2.0290    -5.5850     9.4780 h1         1 UJA       0.059200
     50 H8          -1.2730    -3.3340    13.7240 hn         1 UJA       0.316500
     51 H9           0.0410    -0.7180    13.5790 h1         1 UJA       0.064700
     52 H10         -1.3350    -1.1730    14.5620 h1         1 UJA       0.064700
     53 H11         -3.1900     0.6200     9.5730 h4         1 UJA       0.147000
     54 H12         -4.8210     0.5710    11.6270 ha         1 UJA       0.131000
     55 H13         -3.6370    -0.4120    13.7640 ha         1 UJA       0.126000
     56 H14          0.6520    -5.4160     8.2670 h1         1 UJA       0.067700
     57 H15         -2.3680    -5.6350     8.3800 hc         1 UJA       0.059700
     58 H16         -1.3260    -6.2320     7.1010 hc         1 UJA       0.059700
     59 H17         -1.4950    -3.5000     7.9310 hn         1 UJA       0.428000
     60 H19         -1.2410    -7.2340     9.9870 hc         1 UJA       0.046700
     61 H20          0.5050    -2.5260     9.0710 h1         1 UJA       0.048700
     62 H21         -3.4120    -7.7020     8.9310 hc         1 UJA       0.038700
     63 H22         -2.6080    -8.3970     7.5350 hc         1 UJA       0.038700
     64 H23         -2.4880    -9.4560    10.3970 hc         1 UJA       0.037950
     65 H24         -3.3580   -10.1880     9.0630 hc         1 UJA       0.037950
     66 H25         -1.2420   -10.6260     7.8670 hc         1 UJA       0.039200
     67 H26         -1.1630   -11.3250     9.4740 hc         1 UJA       0.039200
     68 H27          0.9370   -10.0910     8.8960 hc         1 UJA       0.037950
     69 H28          0.1420    -9.3940    10.2940 hc         1 UJA       0.037950
     70 H29         -0.0150    -8.3410     7.4290 hc         1 UJA       0.038700
     71 H30          0.8860    -7.6240     8.7500 hc         1 UJA       0.038700
     72 H31         -1.2000    -1.2410     7.8360 hc         1 UJA       0.040200
     73 H32         -0.3840    -1.5980     6.3190 hc         1 UJA       0.040200
     74 H33          0.7680    -0.0240     8.6730 hc         1 UJA       0.043450
     75 H34          0.2660     0.6460     7.1350 hc         1 UJA       0.043450
     76 H35          2.0440    -0.5950     5.9610 hc         1 UJA       0.038200
     77 H36          2.7530     0.3410     7.2640 hc         1 UJA       0.038200
     78 H37          3.6590    -1.9930     7.1970 hc         1 UJA       0.043450
     79 H38          2.8360    -1.6630     8.7090 hc         1 UJA       0.043450
     80 H39          1.6410    -3.1620     6.3240 hc         1 UJA       0.040200
     81 H40          2.1980    -3.8760     7.8280 hc         1 UJA       0.040200
     82 H41          7.3120    -1.9620    13.1370 ha         1 UJA       0.147000
     83 H42          6.5390    -1.6080    17.3580 ha         1 UJA       0.133000
     84 H43          4.3780    -2.8160    17.1130 ha         1 UJA       0.133000
@<TRIPOS>BOND
     1     1     2 1   
     2     1     4 1   
     3     1    43 1   
     4     1    44 1   
     5     2     3 1   
     6     2    33 1   
     7     3     5 1   
     8     3    45 1   
     9     3    46 1   
    10     4     6 1   
    11     4     7 1   
    12     4    47 1   
    13     5     6 1   
    14     5    48 1   
    15     5    49 1   
    16     6    16 1   
    17     7     8 1   
    18     7     9 2   
    19     8    10 1   
    20     8    50 1   
    21    10    11 1   
    22    10    51 1   
    23    10    52 1   
    24    11    12 1   
    25    11    15 2   
    26    12    13 1   
    27    13    14 2   
    28    13    53 1   
    29    14    15 1   
    30    14    54 1   
    31    15    55 1   
    32    16    17 1   
    33    16    18 2   
    34    17    19 1   
    35    17    20 1   
    36    17    56 1   
    37    19    21 1   
    38    19    57 1   
    39    19    58 1   
    40    20    22 1   
    41    20    59 1   
    42    21    23 1   
    43    21    27 1   
    44    21    60 1   
    45    22    28 1   
    46    22    32 1   
    47    22    61 1   
    48    23    24 1   
    49    23    62 1   
    50    23    63 1   
    51    24    25 1   
    52    24    64 1   
    53    24    65 1   
    54    25    26 1   
    55    25    66 1   
    56    25    67 1   
    57    26    27 1   
    58    26    68 1   
    59    26    69 1   
    60    27    70 1   
    61    27    71 1   
    62    28    29 1   
    63    28    72 1   
    64    28    73 1   
    65    29    30 1   
    66    29    74 1   
    67    29    75 1   
    68    30    31 1   
    69    30    76 1   
    70    30    77 1   
    71    31    32 1   
    72    31    78 1   
    73    31    79 1   
    74    32    80 1   
    75    32    81 1   
    76    33    34 2   
    77    33    37 1   
    78    34    35 1   
    79    35    36 ar  
    80    35    38 ar  
    81    36    37 1   
    82    36    41 ar  
    83    38    39 ar  
    84    38    82 1   
    85    39    40 ar  
    86    39    42 1   
    87    40    41 ar  
    88    40    83 1   
    89    41    84 1   
@<TRIPOS>SUBSTRUCTURE
     1 UJA         1 TEMP              0 ****  ****    0 ROOT
