@<TRIPOS>MOLECULE
UJB
   52    55     1     0     0
SMALL
No Charge or Current Charge


@<TRIPOS>ATOM
      1 C1           3.3910     0.1630     0.3630 c6         1 UJB       0.185500
      2 C2           0.9490     0.8010     0.1140 cc         1 UJB       0.749800
      3 N3           1.2730     1.6740    -0.9130 n          1 UJB      -0.340300
      4 N4           1.9180    -0.1260     0.4610 nh         1 UJB      -0.779600
      5 N5          -0.2180     0.7020     0.7280 nd         1 UJB      -0.728300
      6 C6           0.2700     2.4180    -1.4980 c          1 UJB       0.590200
      7 C7           2.6440     1.7540    -1.4610 c6         1 UJB       0.083000
      8 C8          -1.2140     1.5090     0.2430 cd         1 UJB       0.452600
      9 C9          -1.0030     2.2920    -0.8480 cc         1 UJB      -0.480200
     10 O10          0.4380     3.1360    -2.4720 o          1 UJB      -0.560000
     11 C11          3.6500     1.5210    -0.3310 c6         1 UJB      -0.109400
     12 C12         -3.3910     2.5300     1.0110 c6         1 UJB       0.190000
     13 C13         -4.5840     2.2250     1.9760 c6         1 UJB       0.145100
     14 O14         -5.2020     0.9560     1.6790 os         1 UJB      -0.437000
     15 C15         -4.2720    -0.1370     1.8160 c6         1 UJB       0.145100
     16 C16         -3.0970     0.0100     0.8050 c6         1 UJB       0.190000
     17 N17         -2.4450     1.3630     0.8660 nh         1 UJB      -0.646400
     18 C18          4.1310     0.0840     1.7540 c3         1 UJB       0.284000
     19 F19          4.0730    -1.1540     2.2980 f          1 UJB      -0.110667
     20 F20          5.4440     0.3940     1.6360 f          1 UJB      -0.110667
     21 F21          3.6000     0.9400     2.6590 f          1 UJB      -0.110667
     22 S22         -0.7860    -2.8430    -0.4210 ss         1 UJB       0.252000
     23 C23          0.7890    -2.0690    -0.5930 cc         1 UJB      -0.259300
     24 C24          1.1640    -2.0020    -1.9160 cd         1 UJB      -0.114000
     25 C25          0.1990    -2.5440    -2.8080 cd         1 UJB      -0.126000
     26 C26         -0.9110    -3.0260    -2.1650 cc         1 UJB      -0.023000
     27 Cl          -2.2990    -3.7370    -2.9290 cl         1 UJB      -0.134000
     28 C28          1.5240    -1.5440     0.6100 c3         1 UJB       0.302100
     29 C30         -3.5560    -0.2920    -0.6500 c3         1 UJB      -0.111600
     30 H1           3.8490    -0.6090    -0.2750 h1         1 UJB       0.087700
     31 H111         3.5580     2.3410     0.3950 hc         1 UJB       0.080200
     32 H112         4.6760     1.5610    -0.7210 hc         1 UJB       0.080200
     33 H71C         2.7680     0.9920    -2.2440 h1         1 UJB       0.079700
     34 H72C         2.8290     2.7400    -1.9120 h1         1 UJB       0.079700
     35 H281         2.4030    -2.1840     0.7680 h1         1 UJB       0.088700
     36 H282         0.8910    -1.6610     1.5020 h1         1 UJB       0.088700
     37 H9          -1.8000     2.8720    -1.2880 ha         1 UJB       0.217000
     38 H12         -3.8170     2.7730     0.0260 h1         1 UJB       0.067700
     39 H131        -4.2290     2.2110     3.0160 h1         1 UJB       0.055200
     40 H132        -5.3410     3.0180     1.8920 h1         1 UJB       0.055200
     41 H151        -3.8800    -0.1510     2.8430 h1         1 UJB       0.055200
     42 H152        -4.8010    -1.0850     1.6450 h1         1 UJB       0.055200
     43 H16         -2.3600    -0.7600     1.0730 h1         1 UJB       0.067700
     44 H301        -4.2990     0.4340    -0.9970 hc         1 UJB       0.046367
     45 H302        -2.7110    -0.2680    -1.3480 hc         1 UJB       0.046367
     46 H303        -4.0060    -1.2900    -0.7200 hc         1 UJB       0.046367
     47 H24          2.0980    -1.5590    -2.2480 ha         1 UJB       0.137000
     48 H25          0.3200    -2.5650    -3.8860 ha         1 UJB       0.149000
     49 C29         -2.6470     3.7960     1.5310 c3         1 UJB      -0.111600
     50 H291        -2.1440     3.5960     2.4840 hc         1 UJB       0.046367
     51 H292        -1.8920     4.1580     0.8250 hc         1 UJB       0.046367
     52 H293        -3.3490     4.6230     1.6930 hc         1 UJB       0.046367
@<TRIPOS>BOND
     1     1     4 1   
     2     1    11 1   
     3     1    18 1   
     4     1    30 1   
     5     2     3 1   
     6     2     4 1   
     7     2     5 2   
     8     3     6 1   
     9     3     7 1   
    10     4    28 1   
    11     5     8 1   
    12     6     9 1   
    13     6    10 2   
    14     7    11 1   
    15     7    33 1   
    16     7    34 1   
    17     8     9 2   
    18     8    17 1   
    19     9    37 1   
    20    11    31 1   
    21    11    32 1   
    22    12    13 1   
    23    12    17 1   
    24    12    38 1   
    25    12    49 1   
    26    13    14 1   
    27    13    39 1   
    28    13    40 1   
    29    14    15 1   
    30    15    16 1   
    31    15    41 1   
    32    15    42 1   
    33    16    17 1   
    34    16    29 1   
    35    16    43 1   
    36    18    19 1   
    37    18    20 1   
    38    18    21 1   
    39    22    23 1   
    40    22    26 1   
    41    23    24 2   
    42    23    28 1   
    43    24    25 1   
    44    24    47 1   
    45    25    26 2   
    46    25    48 1   
    47    26    27 1   
    48    28    35 1   
    49    28    36 1   
    50    29    44 1   
    51    29    45 1   
    52    29    46 1   
    53    49    50 1   
    54    49    51 1   
    55    49    52 1   
@<TRIPOS>SUBSTRUCTURE
     1 UJB         1 TEMP              0 ****  ****    0 ROOT
