@<TRIPOS>MOLECULE
UJB
   52    55     1     0     0
SMALL
bcc


@<TRIPOS>ATOM
      1 C1           3.0920     0.0480     0.0750 c6         1 UJB       0.185500
      2 C2           0.7380     0.8170     0.0320 cc         1 UJB       0.749800
      3 N3           1.0440     1.7730    -0.8760 n          1 UJB      -0.407300
      4 N4           1.6710    -0.1580     0.2670 nh         1 UJB      -0.779600
      5 N5          -0.3980     0.7510     0.6540 nd         1 UJB      -0.728300
      6 C6           0.1360     2.8050    -1.1790 c          1 UJB       0.732700
      7 C7           2.2630     1.6120    -1.6570 c6         1 UJB       0.083000
      8 C8          -1.3310     1.7050     0.4110 cd         1 UJB       0.452600
      9 C9          -1.0960     2.7280    -0.4780 cc         1 UJB      -0.430200
     10 O10          0.4340     3.6430    -2.0220 o          1 UJB      -0.635500
     11 C11          3.4010     1.3250    -0.7100 c6         1 UJB      -0.109400
     12 C12         -3.4640     2.6490     1.1650 c6         1 UJB       0.190000
     13 C13         -4.6300     2.2900     2.0920 c6         1 UJB       0.121900
     14 O14         -5.1590     1.0060     1.9000 os         1 UJB      -0.390600
     15 C15         -4.1480     0.0540     2.1320 c6         1 UJB       0.121900
     16 C16         -3.0460     0.1820     1.1020 c6         1 UJB       0.190000
     17 N17         -2.4970     1.5500     1.1250 nh         1 UJB      -0.646400
     18 C18          3.7860     0.1000     1.4340 c3         1 UJB       0.647900
     19 F19          3.6690    -1.0400     2.1270 f          1 UJB      -0.231967
     20 F20          5.0950     0.3330     1.2900 f          1 UJB      -0.231967
     21 F21          3.2840     1.0700     2.2050 f          1 UJB      -0.231967
     22 S22         -0.2450    -1.6620    -1.9840 ss         1 UJB      -0.037800
     23 C23          0.9990    -2.1850    -0.9050 cc         1 UJB      -0.114400
     24 C24          1.7600    -3.1590    -1.4730 cd         1 UJB      -0.132000
     25 C25          1.3520    -3.5050    -2.7910 cd         1 UJB      -0.144000
     26 C26          0.2860    -2.7670    -3.1910 cc         1 UJB       0.030300
     27 CL          -0.5230    -2.8540    -4.6920 cl         1 UJB      -0.042400
     28 C28          1.1850    -1.5280     0.4250 c3         1 UJB       0.302100
     29 C30         -3.5310    -0.2130    -0.2910 c3         1 UJB      -0.111600
     30 H1           3.4990    -0.8080    -0.4750 h1         1 UJB       0.087700
     31 H111         3.5240     2.1890    -0.0550 hc         1 UJB       0.080200
     32 H112         4.3290     1.1990    -1.2630 hc         1 UJB       0.080200
     33 H71C         2.1240     0.8020    -2.3790 h1         1 UJB       0.079700
     34 H72C         2.4400     2.5280    -2.2100 h1         1 UJB       0.079700
     35 H281         1.8970    -2.1140     1.0020 h1         1 UJB       0.088700
     36 H282         0.2630    -1.5070     1.0020 h1         1 UJB       0.088700
     37 H9          -1.8480     3.4600    -0.7280 ha         1 UJB       0.167000
     38 H12         -3.8640     2.8530     0.1610 h1         1 UJB       0.067700
     39 H131        -4.2940     2.4020     3.1340 h1         1 UJB       0.055200
     40 H132        -5.4330     3.0100     1.9250 h1         1 UJB       0.055200
     41 H151        -3.7350     0.1690     3.1440 h1         1 UJB       0.055200
     42 H152        -4.5990    -0.9380     2.0650 h1         1 UJB       0.055200
     43 H16         -2.2430    -0.4930     1.3990 h1         1 UJB       0.067700
     44 H301        -4.3740     0.3960    -0.6190 hc         1 UJB       0.046367
     45 H302        -2.7370    -0.1120    -1.0310 hc         1 UJB       0.046367
     46 H303        -3.8510    -1.2560    -0.2950 hc         1 UJB       0.046367
     47 H24          2.5950    -3.6220    -0.9650 ha         1 UJB       0.155000
     48 H25          1.8290    -4.2560    -3.4040 ha         1 UJB       0.167000
     49 C29         -2.8670     3.9290     1.7470 c3         1 UJB      -0.111600
     50 H291        -2.4560     3.7350     2.7390 hc         1 UJB       0.046367
     51 H292        -2.0820     4.3670     1.1390 hc         1 UJB       0.046367
     52 H293        -3.6530     4.6790     1.8490 hc         1 UJB       0.046367
@<TRIPOS>BOND
     1     1     4 1   
     2     1    11 1   
     3     1    18 1   
     4     1    30 1   
     5     2     3 1   
     6     2     4 1   
     7     2     5 2   
     8     3     6 1   
     9     3     7 1   
    10     4    28 1   
    11     5     8 1   
    12     6     9 1   
    13     6    10 2   
    14     7    11 1   
    15     7    33 1   
    16     7    34 1   
    17     8     9 2   
    18     8    17 1   
    19     9    37 1   
    20    11    31 1   
    21    11    32 1   
    22    12    13 1   
    23    12    17 1   
    24    12    38 1   
    25    12    49 1   
    26    13    14 1   
    27    13    39 1   
    28    13    40 1   
    29    14    15 1   
    30    15    16 1   
    31    15    41 1   
    32    15    42 1   
    33    16    17 1   
    34    16    29 1   
    35    16    43 1   
    36    18    19 1   
    37    18    20 1   
    38    18    21 1   
    39    22    23 1   
    40    22    26 1   
    41    23    24 2   
    42    23    28 1   
    43    24    25 1   
    44    24    47 1   
    45    25    26 2   
    46    25    48 1   
    47    26    27 1   
    48    28    35 1   
    49    28    36 1   
    50    29    44 1   
    51    29    45 1   
    52    29    46 1   
    53    49    50 1   
    54    49    51 1   
    55    49    52 1   
@<TRIPOS>SUBSTRUCTURE
     1 UJB         1 TEMP              0 ****  ****    0 ROOT
