@<TRIPOS>MOLECULE
UJC
   54    57     1     0     0
SMALL
abcg2


@<TRIPOS>ATOM
      1 C13         15.3090   -15.5270   -32.8000 ca         1 UJC      -0.042000
      2 C15         14.0710   -13.8460   -31.5710 c          1 UJC       0.621700
      3 C17         13.8590   -12.3750   -31.3930 ca         1 UJC      -0.123600
      4 C21         13.5790    -9.6460   -30.8560 ca         1 UJC      -0.083000
      5 C22         13.4310   -10.5830   -29.8450 ca         1 UJC      -0.180300
      6 C24         13.1870   -10.1560   -28.4280 c3         1 UJC       0.360300
      7 C28         15.0520   -16.2670   -33.9490 ca         1 UJC      -0.080000
      8 C01         13.8370   -18.8940   -37.1790 c3         1 UJC       0.093300
      9 C03         15.4020   -18.3170   -35.4060 c          1 UJC       0.608700
     10 C05         15.6600   -17.5040   -34.1740 ca         1 UJC      -0.149600
     11 C06         16.5740   -18.0010   -33.2510 ca         1 UJC       0.007000
     12 C07         16.8110   -17.2620   -32.1090 ca         1 UJC      -0.163600
     13 C08         17.7680   -17.5390   -31.0090 c          1 UJC       0.581600
     14 C11         16.6470   -15.5110   -30.5370 c5         1 UJC       0.200300
     15 C12         16.1850   -16.0540   -31.8610 ca         1 UJC      -0.061300
     16 C18         13.9980   -11.4460   -32.4210 ca         1 UJC      -0.103000
     17 C19         13.8490   -10.1070   -32.1290 ca         1 UJC       0.163000
     18 C23         13.5530   -11.9380   -30.1100 ca         1 UJC      -0.029000
     19 C29         17.1210   -14.0750   -30.5560 ca         1 UJC      -0.104300
     20 C30         17.8150   -13.5930   -31.6620 ca         1 UJC      -0.090000
     21 C31         18.2240   -12.2710   -31.7290 ca         1 UJC      -0.122000
     22 C32         17.9390   -11.4160   -30.6730 ca         1 UJC      -0.097000
     23 C33         17.2710   -11.8980   -29.5590 ca         1 UJC      -0.116000
     24 C34         16.8590   -13.2270   -29.4740 ca         1 UJC      -0.057300
     25 C35         16.1670   -13.7090   -28.2300 c3         1 UJC      -0.059800
     26 F20         13.9780    -9.2170   -33.1180 f          1 UJC      -0.166000
     27 F25         12.9340    -8.8500   -28.3210 f          1 UJC      -0.108667
     28 F26         14.2550   -10.4140   -27.6600 f          1 UJC      -0.108667
     29 F27         12.1540   -10.8070   -27.8830 f          1 UJC      -0.108667
     30 N02         14.2080   -18.1550   -35.9940 ns         1 UJC      -0.503900
     31 N10         17.6830   -16.4700   -30.1870 ns         1 UJC      -0.510900
     32 N14         14.7650   -14.2330   -32.6630 ns         1 UJC      -0.154000
     33 O04         16.2470   -19.0930   -35.8300 o          1 UJC      -0.590100
     34 O09         18.4830   -18.5150   -30.8820 o          1 UJC      -0.530000
     35 O16         13.6700   -14.6430   -30.7410 o          1 UJC      -0.579100
     36 H211        13.4890    -8.5820   -30.6790 ha         1 UJC       0.154000
     37 H281        14.3820   -15.8380   -34.6830 ha         1 UJC       0.120000
     38 H012        12.8500   -18.5670   -37.4920 h1         1 UJC       0.042700
     39 H011        14.5350   -18.7090   -37.9950 h1         1 UJC       0.042700
     40 H013        13.8030   -19.9690   -36.9950 h1         1 UJC       0.042700
     41 H061        17.0840   -18.9390   -33.4230 ha         1 UJC       0.162000
     42 H111        15.8190   -15.6070   -29.8290 h1         1 UJC       0.091700
     43 H181        14.2020   -11.7310   -33.4450 ha         1 UJC       0.134000
     44 H231        13.4330   -12.6670   -29.3200 ha         1 UJC       0.156000
     45 H301        18.0270   -14.2570   -32.4930 ha         1 UJC       0.120000
     46 H311        18.7540   -11.9110   -32.6010 ha         1 UJC       0.117000
     47 H321        18.2400   -10.3770   -30.7150 ha         1 UJC       0.117000
     48 H331        17.0600   -11.2290   -28.7330 ha         1 UJC       0.119000
     49 H353        15.1570   -14.0690   -28.4290 hc         1 UJC       0.050033
     50 H351        16.7100   -14.5310   -27.7600 hc         1 UJC       0.050033
     51 H352        16.0870   -12.9080   -27.4960 hc         1 UJC       0.050033
     52 H021        13.4920   -17.6160   -35.5370 hn         1 UJC       0.317500
     53 H101        18.1670   -16.4250   -29.3030 hn         1 UJC       0.335500
     54 H141        15.0860   -13.5470   -33.3300 hn         1 UJC       0.162000
@<TRIPOS>BOND
     1     1     7 ar  
     2     1    15 ar  
     3     1    32 1   
     4     2     3 1   
     5     2    32 1   
     6     2    35 2   
     7     3    16 ar  
     8     3    18 ar  
     9     4     5 ar  
    10     4    17 ar  
    11     4    36 1   
    12     5     6 1   
    13     5    18 ar  
    14     6    27 1   
    15     6    28 1   
    16     6    29 1   
    17     7    10 ar  
    18     7    37 1   
    19     8    30 1   
    20     8    38 1   
    21     8    39 1   
    22     8    40 1   
    23     9    10 1   
    24     9    30 1   
    25     9    33 2   
    26    10    11 ar  
    27    11    12 ar  
    28    11    41 1   
    29    12    13 1   
    30    12    15 ar  
    31    13    31 1   
    32    13    34 2   
    33    14    15 1   
    34    14    19 1   
    35    14    31 1   
    36    14    42 1   
    37    16    17 ar  
    38    16    43 1   
    39    17    26 1   
    40    18    44 1   
    41    19    20 ar  
    42    19    24 ar  
    43    20    21 ar  
    44    20    45 1   
    45    21    22 ar  
    46    21    46 1   
    47    22    23 ar  
    48    22    47 1   
    49    23    24 ar  
    50    23    48 1   
    51    24    25 1   
    52    25    49 1   
    53    25    50 1   
    54    25    51 1   
    55    30    52 1   
    56    31    53 1   
    57    32    54 1   
@<TRIPOS>SUBSTRUCTURE
     1 UJC         1 TEMP              0 ****  ****    0 ROOT
