@<TRIPOS>MOLECULE
UJC
   54    57     1     0     0
SMALL
No Charge or Current Charge


@<TRIPOS>ATOM
      1 C13         15.1970   -15.6950   -32.6030 ca         1 UJC      -0.042000
      2 C15         14.0170   -13.9730   -31.1790 c          1 UJC       0.621700
      3 C17         13.8630   -12.4690   -31.0710 ca         1 UJC      -0.123600
      4 C21         13.6380    -9.6640   -30.7550 ca         1 UJC      -0.083000
      5 C22         13.1140   -10.5200   -29.7620 ca         1 UJC      -0.180300
      6 C24         12.4480    -9.9600   -28.5010 c3         1 UJC       0.360300
      7 C28         14.9010   -16.4090   -33.7840 ca         1 UJC      -0.080000
      8 C01         13.8530   -18.5690   -37.4210 c3         1 UJC       0.093300
      9 C03         15.2670   -18.4230   -35.3470 c          1 UJC       0.608700
     10 C05         15.5730   -17.6280   -34.0960 ca         1 UJC      -0.149600
     11 C06         16.5780   -18.1000   -33.2160 ca         1 UJC       0.007000
     12 C07         16.8680   -17.3570   -32.0640 ca         1 UJC      -0.163600
     13 C08         17.9200   -17.5900   -31.0480 c          1 UJC       0.581600
     14 C11         16.7810   -15.6130   -30.4690 c5         1 UJC       0.200300
     15 C12         16.1940   -16.1980   -31.7460 ca         1 UJC      -0.061300
     16 C18         14.3760   -11.5890   -32.0550 ca         1 UJC      -0.103000
     17 C19         14.2610   -10.2010   -31.8900 ca         1 UJC       0.163000
     18 C23         13.2390   -11.9170   -29.9280 ca         1 UJC      -0.029000
     19 C29         17.2520   -14.1600   -30.6350 ca         1 UJC      -0.104300
     20 C30         17.8660   -13.7620   -31.8450 ca         1 UJC      -0.090000
     21 C31         18.2470   -12.4280   -32.0590 ca         1 UJC      -0.122000
     22 C32         18.0260   -11.4690   -31.0620 ca         1 UJC      -0.097000
     23 C33         17.4400   -11.8500   -29.8470 ca         1 UJC      -0.116000
     24 C34         17.0580   -13.1870   -29.6180 ca         1 UJC      -0.057300
     25 C35         16.4440   -13.5460   -28.2670 c3         1 UJC      -0.059800
     26 F20         14.7660    -9.3730   -32.8300 f          1 UJC      -0.166000
     27 F25         12.0630    -8.6700   -28.6400 f          1 UJC      -0.108667
     28 F26         13.2850   -10.0090   -27.4410 f          1 UJC      -0.108667
     29 F27         11.3400   -10.6590   -28.1630 f          1 UJC      -0.108667
     30 N02         14.2790   -17.9320   -36.1720 ns         1 UJC      -0.503900
     31 N10         17.8700   -16.5500   -30.1480 ns         1 UJC      -0.510900
     32 N14         14.5720   -14.4500   -32.3530 ns         1 UJC      -0.154000
     33 O04         15.8640   -19.4550   -35.6230 o          1 UJC      -0.590100
     34 O09         18.7060   -18.5220   -31.0060 o          1 UJC      -0.530000
     35 O16         13.6920   -14.7230   -30.2640 o          1 UJC      -0.579100
     36 H211        13.5730    -8.5830   -30.6550 ha         1 UJC       0.154000
     37 H281        14.1450   -16.0030   -34.4500 ha         1 UJC       0.120000
     38 H012        13.0530   -17.9750   -37.8820 h1         1 UJC       0.042700
     39 H011        14.7030   -18.6310   -38.1130 h1         1 UJC       0.042700
     40 H013        13.4780   -19.5790   -37.2120 h1         1 UJC       0.042700
     41 H061        17.1350   -19.0110   -33.4300 ha         1 UJC       0.162000
     42 H111        16.0080   -15.6720   -29.6920 h1         1 UJC       0.091700
     43 H181        14.8860   -11.9570   -32.9410 ha         1 UJC       0.134000
     44 H231        12.8550   -12.5810   -29.1530 ha         1 UJC       0.156000
     45 H301        18.0410   -14.4900   -32.6350 ha         1 UJC       0.120000
     46 H311        18.7090   -12.1390   -33.0000 ha         1 UJC       0.117000
     47 H321        18.3160   -10.4340   -31.2280 ha         1 UJC       0.117000
     48 H331        17.2820   -11.0980   -29.0770 ha         1 UJC       0.119000
     49 H353        15.3700   -13.7420   -28.3570 hc         1 UJC       0.050033
     50 H351        16.9170   -14.4370   -27.8380 hc         1 UJC       0.050033
     51 H352        16.5660   -12.7360   -27.5380 hc         1 UJC       0.050033
     52 H021        13.8210   -17.0770   -35.8850 hn         1 UJC       0.317500
     53 H101        18.5140   -16.5070   -29.3680 hn         1 UJC       0.335500
     54 H141        14.6920   -13.7650   -33.0860 hn         1 UJC       0.162000
@<TRIPOS>BOND
     1     1     7 ar  
     2     1    15 ar  
     3     1    32 1   
     4     2     3 1   
     5     2    32 1   
     6     2    35 2   
     7     3    16 ar  
     8     3    18 ar  
     9     4     5 ar  
    10     4    17 ar  
    11     4    36 1   
    12     5     6 1   
    13     5    18 ar  
    14     6    27 1   
    15     6    28 1   
    16     6    29 1   
    17     7    10 ar  
    18     7    37 1   
    19     8    30 1   
    20     8    38 1   
    21     8    39 1   
    22     8    40 1   
    23     9    10 1   
    24     9    30 1   
    25     9    33 2   
    26    10    11 ar  
    27    11    12 ar  
    28    11    41 1   
    29    12    13 1   
    30    12    15 ar  
    31    13    31 1   
    32    13    34 2   
    33    14    15 1   
    34    14    19 1   
    35    14    31 1   
    36    14    42 1   
    37    16    17 ar  
    38    16    43 1   
    39    17    26 1   
    40    18    44 1   
    41    19    20 ar  
    42    19    24 ar  
    43    20    21 ar  
    44    20    45 1   
    45    21    22 ar  
    46    21    46 1   
    47    22    23 ar  
    48    22    47 1   
    49    23    24 ar  
    50    23    48 1   
    51    24    25 1   
    52    25    49 1   
    53    25    50 1   
    54    25    51 1   
    55    30    52 1   
    56    31    53 1   
    57    32    54 1   
@<TRIPOS>SUBSTRUCTURE
     1 UJC         1 TEMP              0 ****  ****    0 ROOT
