@<TRIPOS>MOLECULE
UJD
   13    13     1     0     0
SMALL
No Charge or Current Charge


@<TRIPOS>ATOM
      1 C02        -38.6340    56.3050    78.4120 c          1 UJD       0.738000
      2 C04        -40.0230    55.6900    78.8710 c5         1 UJD       0.124300
      3 C06        -42.2430    55.6890    77.2080 c5         1 UJD       0.075100
      4 C07        -41.1300    54.7820    76.6290 c5         1 UJD       0.075100
      5 O01        -38.4620    56.6550    77.2480 o          1 UJD      -0.702000
      6 O03        -37.7470    56.4260    79.2490 o          1 UJD      -0.702000
      7 S05        -41.4760    56.8290    78.4790 ss         1 UJD      -0.475500
      8 S08        -40.3430    54.0050    78.1140 ss         1 UJD      -0.475500
      9 H1         -39.9670    55.5680    79.9590 h2         1 UJD       0.090700
     10 H2         -42.7300    56.2800    76.4200 h1         1 UJD       0.062950
     11 H3         -43.0190    55.0830    77.6940 h1         1 UJD       0.062950
     12 H4         -41.5430    54.0070    75.9690 h1         1 UJD       0.062950
     13 H5         -40.3920    55.3590    76.0580 h1         1 UJD       0.062950
@<TRIPOS>BOND
     1     1     2 1   
     2     1     5 1   
     3     1     6 1   
     4     2     7 1   
     5     2     8 1   
     6     2     9 1   
     7     3     4 1   
     8     3     7 1   
     9     3    10 1   
    10     3    11 1   
    11     4     8 1   
    12     4    12 1   
    13     4    13 1   
@<TRIPOS>SUBSTRUCTURE
     1 UJD         1 TEMP              0 ****  ****    0 ROOT
