@<TRIPOS>MOLECULE
UJD
   13    13     1     0     0
SMALL
bcc


@<TRIPOS>ATOM
      1 C02        -38.7100    56.3490    78.3640 c          1 UJD       0.948600
      2 C04        -40.0250    55.7280    78.9080 c5         1 UJD       0.028500
      3 C06        -42.1790    55.7060    77.1770 c5         1 UJD       0.027200
      4 C07        -41.1020    54.7480    76.7010 c5         1 UJD       0.027200
      5 O01        -38.7750    56.9740    77.2940 o          1 UJD      -0.807300
      6 O03        -37.7050    56.1070    79.0560 o          1 UJD      -0.807300
      7 S05        -41.5240    56.7050    78.5590 ss         1 UJD      -0.379700
      8 S08        -40.2710    54.0860    78.1650 ss         1 UJD      -0.379700
      9 H1         -39.9620    55.5770    79.9870 h2         1 UJD       0.090700
     10 H2         -42.4820    56.3750    76.3710 h1         1 UJD       0.062950
     11 H3         -43.0560    55.1590    77.5190 h1         1 UJD       0.062950
     12 H4         -41.5380    53.9140    76.1490 h1         1 UJD       0.062950
     13 H5         -40.3790    55.2500    76.0620 h1         1 UJD       0.062950
@<TRIPOS>BOND
     1     1     2 1   
     2     1     5 1   
     3     1     6 1   
     4     2     7 1   
     5     2     8 1   
     6     2     9 1   
     7     3     4 1   
     8     3     7 1   
     9     3    10 1   
    10     3    11 1   
    11     4     8 1   
    12     4    12 1   
    13     4    13 1   
@<TRIPOS>SUBSTRUCTURE
     1 UJD         1 TEMP              0 ****  ****    0 ROOT
