@<TRIPOS>MOLECULE
UJE
   45    47     1     0     0
SMALL
abcg2


@<TRIPOS>ATOM
      1 O1          -6.8490     9.3840    25.7290 o          1 UJE      -0.607100
      2 O2          -2.6590    14.4950    18.7880 o          1 UJE      -0.574000
      3 C1          -5.6970     9.3400    26.1430 c          1 UJE       0.596100
      4 C2          -4.8020    10.5630    26.1360 c3         1 UJE      -0.154400
      5 C3          -4.8710    11.3320    24.8230 c3         1 UJE      -0.065400
      6 C4          -4.2270    10.5970    23.6540 c3         1 UJE      -0.078400
      7 C5          -4.3740    11.3690    22.3480 c3         1 UJE      -0.059400
      8 C6          -3.7030    10.7030    21.1620 c5         1 UJE       0.076300
      9 S1          -1.8850    10.6640    21.3140 ss         1 UJE      -0.411000
     10 C7          -1.7760    10.1610    19.5780 c5         1 UJE       0.030600
     11 C8          -2.8300    10.9790    18.8210 c5         1 UJE       0.103700
     12 N1          -2.3530    12.2530    18.3540 ns         1 UJE      -0.523900
     13 C9          -2.9120    13.3180    18.9840 c          1 UJE       0.612000
     14 N2          -3.8180    12.8240    19.8760 ns         1 UJE      -0.509900
     15 C10         -3.9580    11.3910    19.8150 c5         1 UJE       0.094700
     16 N3          -5.1610     8.2250    26.6650 ns         1 UJE      -0.496900
     17 C11         -5.8800     6.9780    26.7640 c5         1 UJE       0.071700
     18 C12         -5.9270     6.1320    25.4730 c5         1 UJE      -0.131400
     19 C13         -5.6310     4.6920    25.9480 c5         1 UJE       0.134800
     20 N4          -5.6760     4.6930    27.4100 n7         1 UJE      -0.826400
     21 C14         -5.2450     6.0250    27.7880 c5         1 UJE       0.125800
     22 H1          -3.7660    10.2990    26.3650 hc         1 UJE       0.058700
     23 H2          -5.1410    11.2080    26.9520 hc         1 UJE       0.058700
     24 H3          -4.3690    12.2940    24.9560 hc         1 UJE       0.053700
     25 H4          -5.9140    11.5620    24.5910 hc         1 UJE       0.053700
     26 H5          -4.6710     9.6030    23.5340 hc         1 UJE       0.046200
     27 H6          -3.1680    10.4320    23.8760 hc         1 UJE       0.046200
     28 H7          -3.9770    12.3810    22.4710 hc         1 UJE       0.054700
     29 H8          -5.4400    11.4800    22.1210 hc         1 UJE       0.054700
     30 H9          -4.0520     9.6680    21.0770 h1         1 UJE       0.070700
     31 H10         -1.9960     9.0960    19.4910 h1         1 UJE       0.076700
     32 H11         -0.7710    10.3310    19.1950 h1         1 UJE       0.076700
     33 H12         -3.2190    10.3820    17.9930 h1         1 UJE       0.069700
     34 H13         -1.5310    12.3490    17.7810 hn         1 UJE       0.341500
     35 H14         -4.5640    13.4120    20.2100 hn         1 UJE       0.335500
     36 H15         -4.9470    11.1060    19.4450 h1         1 UJE       0.062700
     37 H16         -4.1790     8.2230    26.8950 hn         1 UJE       0.312500
     38 H17         -6.8990     7.2020    27.0840 h1         1 UJE       0.074700
     39 H18         -5.1800     6.4790    24.7570 hc         1 UJE       0.058200
     40 H19         -6.9000     6.2110    24.9890 hc         1 UJE       0.058200
     41 H20         -6.3310     3.9580    25.5490 h1         1 UJE       0.054700
     42 H21         -4.6320     4.3910    25.6230 h1         1 UJE       0.054700
     43 H22         -6.6360     4.5680    27.7080 hn         1 UJE       0.404000
     44 H24         -4.1520     6.0820    27.7210 h1         1 UJE       0.058200
     45 H25         -5.5240     6.2560    28.8160 h1         1 UJE       0.058200
@<TRIPOS>BOND
     1     1     3 2   
     2     2    13 2   
     3     3     4 1   
     4     3    16 1   
     5     4     5 1   
     6     4    22 1   
     7     4    23 1   
     8     5     6 1   
     9     5    24 1   
    10     5    25 1   
    11     6     7 1   
    12     6    26 1   
    13     6    27 1   
    14     7     8 1   
    15     7    28 1   
    16     7    29 1   
    17     8     9 1   
    18     8    15 1   
    19     8    30 1   
    20     9    10 1   
    21    10    11 1   
    22    10    31 1   
    23    10    32 1   
    24    11    12 1   
    25    11    15 1   
    26    11    33 1   
    27    12    13 1   
    28    12    34 1   
    29    13    14 1   
    30    14    15 1   
    31    14    35 1   
    32    15    36 1   
    33    16    17 1   
    34    16    37 1   
    35    17    18 1   
    36    17    21 1   
    37    17    38 1   
    38    18    19 1   
    39    18    39 1   
    40    18    40 1   
    41    19    20 1   
    42    19    41 1   
    43    19    42 1   
    44    20    21 1   
    45    20    43 1   
    46    21    44 1   
    47    21    45 1   
@<TRIPOS>SUBSTRUCTURE
     1 UJE         1 TEMP              0 ****  ****    0 ROOT
