@<TRIPOS>MOLECULE
UJE
   45    47     1     0     0
SMALL
No Charge or Current Charge


@<TRIPOS>ATOM
      1 O1          -7.1680     9.4170    26.4300 o          1 UJE      -0.607100
      2 O2          -2.0850    13.8560    19.0890 o          1 UJE      -0.574000
      3 C1          -5.9510     9.5410    26.4630 c          1 UJE       0.596100
      4 C2          -5.2690    10.9140    26.4140 c3         1 UJE      -0.154400
      5 C3          -5.3160    11.5410    24.9980 c3         1 UJE      -0.065400
      6 C4          -4.5800    10.7080    23.9220 c3         1 UJE      -0.078400
      7 C5          -4.5920    11.3750    22.5270 c3         1 UJE      -0.059400
      8 C6          -3.9080    10.5340    21.4150 c5         1 UJE       0.076300
      9 S1          -2.0840    10.3880    21.6930 ss         1 UJE      -0.411000
     10 C7          -1.9570     9.6180    20.0140 c5         1 UJE       0.030600
     11 C8          -2.9040    10.4330    19.0700 c5         1 UJE       0.103700
     12 N1          -2.1230    11.6110    18.6820 ns         1 UJE      -0.523900
     13 C9          -2.5850    12.7570    19.2330 c          1 UJE       0.612000
     14 N2          -3.6990    12.4920    19.9510 ns         1 UJE      -0.509900
     15 C10         -4.0630    11.0700    19.9430 c5         1 UJE       0.094700
     16 N3          -5.0830     8.4720    26.5790 ns         1 UJE      -0.496900
     17 C11         -5.6390     7.1110    26.5560 c5         1 UJE       0.071700
     18 C12         -5.7100     6.7020    25.0680 c5         1 UJE      -0.131400
     19 C13         -5.6360     5.1510    25.1800 c5         1 UJE       0.134800
     20 N4          -4.9420     4.8480    26.4690 n7         1 UJE      -0.826400
     21 C14         -4.5090     6.1600    27.0160 c5         1 UJE       0.125800
     22 H1          -4.2200    10.8260    26.7190 hc         1 UJE       0.058700
     23 H2          -5.7940    11.5870    27.1010 hc         1 UJE       0.058700
     24 H3          -4.8690    12.5430    25.0440 hc         1 UJE       0.053700
     25 H4          -6.3630    11.6770    24.6980 hc         1 UJE       0.053700
     26 H5          -5.0450     9.7180    23.8440 hc         1 UJE       0.046200
     27 H6          -3.5420    10.5500    24.2420 hc         1 UJE       0.046200
     28 H7          -4.1120    12.3570    22.6060 hc         1 UJE       0.054700
     29 H8          -5.6350    11.5600    22.2420 hc         1 UJE       0.054700
     30 H9          -4.3320     9.5210    21.4600 h1         1 UJE       0.070700
     31 H10         -2.2950     8.5760    20.0830 h1         1 UJE       0.076700
     32 H11         -0.9160     9.6060    19.6640 h1         1 UJE       0.076700
     33 H12         -3.2660     9.8530    18.2100 h1         1 UJE       0.069700
     34 H13         -1.2880    11.6320    18.1110 hn         1 UJE       0.341500
     35 H14         -4.1790    13.2460    20.4260 hn         1 UJE       0.335500
     36 H15         -5.0630    10.8930    19.5260 h1         1 UJE       0.062700
     37 H16         -4.0930     8.6800    26.6100 hn         1 UJE       0.312500
     38 H17         -6.5790     6.9720    27.1090 h1         1 UJE       0.074700
     39 H18         -4.8590     7.0840    24.4900 hc         1 UJE       0.058200
     40 H19         -6.6250     7.0460    24.5730 hc         1 UJE       0.058200
     41 H20         -6.6440     4.7100    25.1820 h1         1 UJE       0.054700
     42 H21         -5.0950     4.7220    24.3240 h1         1 UJE       0.054700
     43 H22         -5.6380     4.4460    27.1120 hn         1 UJE       0.404000
     44 H24         -3.5410     6.4500    26.5810 h1         1 UJE       0.058200
     45 H25         -4.3950     6.1370    28.1090 h1         1 UJE       0.058200
@<TRIPOS>BOND
     1     1     3 2   
     2     2    13 2   
     3     3     4 1   
     4     3    16 1   
     5     4     5 1   
     6     4    22 1   
     7     4    23 1   
     8     5     6 1   
     9     5    24 1   
    10     5    25 1   
    11     6     7 1   
    12     6    26 1   
    13     6    27 1   
    14     7     8 1   
    15     7    28 1   
    16     7    29 1   
    17     8     9 1   
    18     8    15 1   
    19     8    30 1   
    20     9    10 1   
    21    10    11 1   
    22    10    31 1   
    23    10    32 1   
    24    11    12 1   
    25    11    15 1   
    26    11    33 1   
    27    12    13 1   
    28    12    34 1   
    29    13    14 1   
    30    14    15 1   
    31    14    35 1   
    32    15    36 1   
    33    16    17 1   
    34    16    37 1   
    35    17    18 1   
    36    17    21 1   
    37    17    38 1   
    38    18    19 1   
    39    18    39 1   
    40    18    40 1   
    41    19    20 1   
    42    19    41 1   
    43    19    42 1   
    44    20    21 1   
    45    20    43 1   
    46    21    44 1   
    47    21    45 1   
@<TRIPOS>SUBSTRUCTURE
     1 UJE         1 TEMP              0 ****  ****    0 ROOT
