@<TRIPOS>MOLECULE
UJF
   32    33     1     0     0
SMALL
No Charge or Current Charge


@<TRIPOS>ATOM
      1 C10        110.2330    82.3360    59.1320 ca         1 UJF      -0.063300
      2 C13        110.3620    81.0010    59.8610 c3         1 UJF      -0.030100
      3 C01        106.3060    88.1900    56.8560 ca         1 UJF       0.104100
      4 C02        106.4010    87.1450    57.7920 ca         1 UJF      -0.138500
      5 C03        107.5960    86.4110    57.9090 ca         1 UJF      -0.114000
      6 C04        108.6990    86.7220    57.0840 ca         1 UJF       0.097100
      7 C05        108.6000    87.7720    56.1550 ca         1 UJF      -0.114000
      8 C06        107.4040    88.5040    56.0390 ca         1 UJF      -0.138500
      9 C07        109.9920    84.8090    57.7960 ca         1 UJF       0.118100
     10 C08        110.6200    84.7450    59.0510 ca         1 UJF      -0.115000
     11 C09        110.7380    83.5130    59.7180 ca         1 UJF      -0.089000
     12 C11        109.6090    82.4040    57.8690 ca         1 UJF      -0.059000
     13 C12        109.4900    83.6330    57.1990 ca         1 UJF       0.187000
     14 C14        111.7790    80.3890    59.7770 c3         1 UJF       0.153800
     15 I01        108.5370    83.6710    55.2400 i          1 UJF      -0.295000
     16 N01        112.1620    80.0260    58.3950 n8         1 UJF      -0.999200
     17 O02        109.8870    86.0280    57.1640 os         1 UJF      -0.251200
     18 H1         110.1100    81.1390    60.9190 hc         1 UJF       0.048200
     19 H2         109.6330    80.2770    59.4740 hc         1 UJF       0.048200
     20 H3         105.5560    86.8980    58.4300 ha         1 UJF       0.123000
     21 H4         107.6560    85.6100    58.6420 ha         1 UJF       0.129000
     22 H5         109.4490    88.0150    55.5210 ha         1 UJF       0.129000
     23 H6         107.3300    89.3130    55.3170 ha         1 UJF       0.123000
     24 H7         111.0110    85.6510    59.5070 ha         1 UJF       0.130000
     25 H8         111.2230    83.4730    60.6910 ha         1 UJF       0.116000
     26 H9         109.2210    81.5030    57.4020 ha         1 UJF       0.127000
     27 H10        112.5120    81.1060    60.1710 h1         1 UJF       0.031700
     28 H11        111.8190    79.4830    60.3980 h1         1 UJF       0.031700
     29 H12        113.0840    79.5730    58.4120 hn         1 UJF       0.394500
     30 H13        111.5360    79.2850    58.0590 hn         1 UJF       0.394500
     31 H15        104.4950    88.5530    57.3770 ho         1 UJF       0.460000
     32 O01        105.1510    88.9050    56.7360 oh         1 UJF      -0.539100
@<TRIPOS>BOND
     1     1     2 1   
     2     1    11 ar  
     3     1    12 ar  
     4     2    14 1   
     5     2    18 1   
     6     2    19 1   
     7     3     4 ar  
     8     3     8 ar  
     9     3    32 1   
    10     4     5 ar  
    11     4    20 1   
    12     5     6 ar  
    13     5    21 1   
    14     6     7 ar  
    15     6    17 1   
    16     7     8 ar  
    17     7    22 1   
    18     8    23 1   
    19     9    10 ar  
    20     9    13 ar  
    21     9    17 1   
    22    10    11 ar  
    23    10    24 1   
    24    11    25 1   
    25    12    13 ar  
    26    12    26 1   
    27    13    15 1   
    28    14    16 1   
    29    14    27 1   
    30    14    28 1   
    31    16    29 1   
    32    16    30 1   
    33    31    32 1   
@<TRIPOS>SUBSTRUCTURE
     1 UJF         1 TEMP              0 ****  ****    0 ROOT
