@<TRIPOS>MOLECULE
UJF
   32    33     1     0     0
SMALL
abcg2


@<TRIPOS>ATOM
      1 C10        110.1610    82.2990    59.1000 ca         1 UJF      -0.063300
      2 C13        110.3460    81.0150    59.8650 c3         1 UJF      -0.030100
      3 C01        106.4060    88.2380    57.0030 ca         1 UJF       0.104100
      4 C02        106.4540    87.1050    57.8070 ca         1 UJF      -0.138500
      5 C03        107.5830    86.2890    57.8060 ca         1 UJF      -0.114000
      6 C04        108.6620    86.6110    56.9940 ca         1 UJF       0.097100
      7 C05        108.6160    87.7410    56.1840 ca         1 UJF      -0.114000
      8 C06        107.4930    88.5540    56.1890 ca         1 UJF      -0.138500
      9 C07        109.8940    84.6860    57.6490 ca         1 UJF       0.118100
     10 C08        110.4580    84.6970    58.9190 ca         1 UJF      -0.115000
     11 C09        110.5900    83.5160    59.6350 ca         1 UJF      -0.089000
     12 C11        109.5920    82.2970    57.8270 ca         1 UJF      -0.059000
     13 C12        109.4610    83.4790    57.1070 ca         1 UJF       0.187000
     14 C14        111.7870    80.4940    59.8370 c3         1 UJF       0.153800
     15 I01        108.6150    83.4350    55.1730 i          1 UJF      -0.295000
     16 N01        112.2110    80.1680    58.4710 n8         1 UJF      -0.999200
     17 O02        109.8250    85.8600    56.9310 os         1 UJF      -0.251200
     18 H1         110.0620    81.1670    60.9090 hc         1 UJF       0.048200
     19 H2         109.6830    80.2470    59.4590 hc         1 UJF       0.048200
     20 H3         105.6100    86.8530    58.4380 ha         1 UJF       0.123000
     21 H4         107.6080    85.4090    58.4330 ha         1 UJF       0.129000
     22 H5         109.4620    87.9740    55.5500 ha         1 UJF       0.129000
     23 H6         107.4510    89.4360    55.5630 ha         1 UJF       0.123000
     24 H7         110.7850    85.6420    59.3330 ha         1 UJF       0.130000
     25 H8         111.0330    83.5390    60.6230 ha         1 UJF       0.116000
     26 H9         109.2570    81.3630    57.3960 ha         1 UJF       0.127000
     27 H10        112.4560    81.2660    60.2250 h1         1 UJF       0.031700
     28 H11        111.8510    79.6380    60.5220 h1         1 UJF       0.031700
     29 H12        113.1710    79.8390    58.4800 hn         1 UJF       0.394500
     30 H13        111.6520    79.3980    58.1150 hn         1 UJF       0.394500
     31 H15        104.6430    88.7530    57.5790 ho         1 UJF       0.460000
     32 O01        105.3220    89.0750    56.9710 oh         1 UJF      -0.539100
@<TRIPOS>BOND
     1     1     2 1   
     2     1    11 ar  
     3     1    12 ar  
     4     2    14 1   
     5     2    18 1   
     6     2    19 1   
     7     3     4 ar  
     8     3     8 ar  
     9     3    32 1   
    10     4     5 ar  
    11     4    20 1   
    12     5     6 ar  
    13     5    21 1   
    14     6     7 ar  
    15     6    17 1   
    16     7     8 ar  
    17     7    22 1   
    18     8    23 1   
    19     9    10 ar  
    20     9    13 ar  
    21     9    17 1   
    22    10    11 ar  
    23    10    24 1   
    24    11    25 1   
    25    12    13 ar  
    26    12    26 1   
    27    13    15 1   
    28    14    16 1   
    29    14    27 1   
    30    14    28 1   
    31    16    29 1   
    32    16    30 1   
    33    31    32 1   
@<TRIPOS>SUBSTRUCTURE
     1 UJF         1 TEMP              0 ****  ****    0 ROOT
