@<TRIPOS>MOLECULE
UJG
   97   103     1     0     0
SMALL
No Charge or Current Charge


@<TRIPOS>ATOM
      1 PA         -38.1590    43.5390    82.6290 p5         1 UJG       1.472800
      2 O1A        -39.0670    42.3700    82.8240 o          1 UJG      -0.839000
      3 O2A        -36.7630    43.0680    82.3860 o          1 UJG      -0.839000
      4 O5B        -38.1850    44.5510    83.8810 os         1 UJG      -0.587400
      5 C5B        -37.1510    45.5340    84.0310 c3         1 UJG       0.246600
      6 C4B        -37.6570    46.6210    85.0150 c5         1 UJG       0.149300
      7 O4B        -37.5020    46.1650    86.3840 os         1 UJG      -0.413000
      8 C3B        -36.8610    47.9570    84.9940 c5         1 UJG       0.140300
      9 O3B        -37.1610    48.8100    83.8760 oh         1 UJG      -0.675000
     10 C2B        -37.3600    48.5810    86.3320 c5         1 UJG       0.086300
     11 O2B        -38.6720    49.1460    86.1740 oh         1 UJG      -0.676000
     12 C1B        -37.3620    47.3100    87.2590 c5         1 UJG       0.279300
     13 N9A        -36.1900    47.0900    88.1120 na         1 UJG      -0.290300
     14 C8A        -34.8990    47.5910    87.9020 cc         1 UJG       0.446700
     15 N7A        -34.0600    47.2220    88.8920 nd         1 UJG      -0.588100
     16 C5A        -34.8760    46.4670    89.7400 ca         1 UJG      -0.090600
     17 C6A        -34.5560    45.8130    90.9500 ca         1 UJG       0.440900
     18 N6A        -33.3090    45.8340    91.4910 nv         1 UJG      -1.078900
     19 N1A        -35.4820    45.1190    91.6310 nb         1 UJG      -0.321000
     20 C2A        -36.7250    45.0960    91.0900 ca         1 UJG       0.160900
     21 N3A        -37.1210    45.6950    89.9410 nb         1 UJG      -0.215000
     22 C4A        -36.1660    46.3780    89.2790 ca         1 UJG       0.103500
     23 N1         -42.8350    53.3890    81.0880 ns         1 UJG      -0.519600
     24 C2         -43.6020    54.3450    81.6590 c          1 UJG       0.625000
     25 O2         -43.8850    54.3400    82.8400 o          1 UJG      -0.564000
     26 N3         -44.0290    55.3020    80.8030 ns         1 UJG      -0.482500
     27 C4         -43.7710    55.4140    79.4740 c          1 UJG       0.624600
     28 O4         -44.2440    56.3260    78.8180 o          1 UJG      -0.564000
     29 C4X        -42.9130    54.3470    78.9220 cc         1 UJG      -0.394600
     30 N5         -42.3920    54.2790    77.6130 na         1 UJG       0.027000
     31 C5X        -42.4110    52.9820    77.0970 ca         1 UJG      -0.094000
     32 C6         -42.8590    52.6970    75.7920 ca         1 UJG      -0.082000
     33 C7         -42.8930    51.3710    75.3200 ca         1 UJG      -0.102300
     34 C7M        -43.3670    51.0970    73.8950 c3         1 UJG      -0.035800
     35 C8         -42.4940    50.3180    76.1770 ca         1 UJG      -0.048300
     36 C8M        -42.5230    48.8650    75.7110 c3         1 UJG      -0.052800
     37 C9         -42.0800    50.6130    77.4900 ca         1 UJG      -0.120000
     38 C9A        -42.0370    51.9440    77.9520 ca         1 UJG      -0.018000
     39 C10        -42.4900    53.3140    79.7690 cd         1 UJG       0.199600
     40 C1         -40.6770    51.4820    80.0240 c3         1 UJG       0.070600
     41 C11        -41.2570    50.4620    81.0490 c3         1 UJG       0.159300
     42 O6         -41.6940    51.1650    82.2270 oh         1 UJG      -0.760000
     43 C3         -40.2360    49.3930    81.5550 c3         1 UJG       0.149300
     44 O3         -39.2700    50.0600    82.4050 oh         1 UJG      -0.705000
     45 C12        -39.5290    48.5600    80.4300 c3         1 UJG       0.124300
     46 O7         -40.5060    47.9450    79.5610 oh         1 UJG      -0.806000
     47 C5         -38.5350    47.5020    81.0070 c3         1 UJG       0.206600
     48 O5         -39.1820    46.7090    82.0180 os         1 UJG      -0.622400
     49 P          -39.9180    45.3380    81.6210 p5         1 UJG       1.466800
     50 O1P        -40.6200    45.5360    80.3200 o          1 UJG      -0.838000
     51 O2P        -40.8720    44.8900    82.6740 o          1 UJG      -0.838000
     52 O3P        -38.6300    44.4520    81.4330 os         1 UJG      -0.715800
     53 C01        -40.5400    57.4860    76.6260 c5         1 UJG      -0.085400
     54 C02        -41.1980    56.5920    77.7120 c5         1 UJG      -0.083400
     55 C03        -41.9140    55.4860    76.8770 c5         1 UJG       0.242300
     56 C05        -39.6090    56.5010    75.8780 c5         1 UJG       0.080600
     57 S04        -40.5990    54.9440    75.6450 ss         1 UJG      -0.550000
     58 H2         -36.2310    45.0820    84.4240 h1         1 UJG       0.023200
     59 H3         -36.9140    46.0010    83.0660 h1         1 UJG       0.023200
     60 H4         -38.7210    46.8080    84.8120 h1         1 UJG       0.128700
     61 H5         -35.7830    47.7510    85.0340 h1         1 UJG       0.034700
     62 H6         -36.3600    49.3670    83.7230 ho         1 UJG       0.494000
     63 H7         -36.6680    49.3510    86.6990 h1         1 UJG       0.046700
     64 H8         -38.6840    49.5110    85.2580 ho         1 UJG       0.503000
     65 H9         -38.2180    47.3610    87.9440 h2         1 UJG       0.092700
     66 H10        -34.6360    48.1960    87.0420 h5         1 UJG       0.101800
     67 H11        -33.0760    45.1200    92.1760 hn         1 UJG       0.499000
     68 H12        -32.5530    46.1590    90.8930 hn         1 UJG       0.499000
     69 H13        -37.4840    44.5380    91.6360 h5         1 UJG       0.033100
     70 H14        -42.5370    52.6460    81.7240 hn         1 UJG       0.513000
     71 H15        -44.6120    56.0200    81.2000 hn         1 UJG       0.329500
     72 H16        -43.1790    53.5090    75.1430 ha         1 UJG       0.115000
     73 H17        -42.5840    50.6070    73.3050 hc         1 UJG       0.034700
     74 H18        -44.2500    50.4460    73.8910 hc         1 UJG       0.034700
     75 H19        -43.6400    52.0200    73.3710 hc         1 UJG       0.034700
     76 H20        -41.8830    48.7190    74.8340 hc         1 UJG       0.048367
     77 H21        -42.1700    48.1790    76.4900 hc         1 UJG       0.048367
     78 H22        -43.5410    48.5580    75.4420 hc         1 UJG       0.048367
     79 H23        -41.8060    49.7960    78.1520 ha         1 UJG       0.157000
     80 H24        -40.0580    50.9560    79.2900 h1         1 UJG       0.086200
     81 H25        -40.0130    52.1800    80.5470 h1         1 UJG       0.086200
     82 H26        -42.1000    49.9360    80.5780 h1         1 UJG       0.067700
     83 H27        -40.9180    51.0520    82.8380 ho         1 UJG       0.526000
     84 H28        -40.8130    48.6790    82.1600 h1         1 UJG       0.081700
     85 H29        -38.6460    49.3730    82.7570 ho         1 UJG       0.492000
     86 H30        -38.9210    49.2510    79.8320 h1         1 UJG       0.016700
     87 H31        -40.5770    46.9650    79.8360 ho         1 UJG       0.590000
     88 H32        -38.1570    46.8740    80.1890 h1         1 UJG       0.032700
     89 H33        -37.6670    48.0190    81.4330 h1         1 UJG       0.032700
     90 H37        -40.4520    56.1620    78.3910 hc         1 UJG       0.068200
     91 H38        -41.8910    57.1720    78.3270 hc         1 UJG       0.068200
     92 H39        -42.7780    55.8970    76.3410 h2         1 UJG       0.074700
     93 H40        -39.2770    56.9000    74.9100 h1         1 UJG       0.062200
     94 H41        -38.7160    56.2710    76.4760 h1         1 UJG       0.062200
     95 H35        -41.2890    57.9210    75.9540 hc         1 UJG       0.045700
     96 N10        -41.6850    52.2690    79.2670 na         1 UJG      -0.092000
     97 H36        -39.9770    58.3180    77.0620 hc         1 UJG       0.045700
@<TRIPOS>BOND
     1     1     2 1   
     2     1     3 1   
     3     1     4 1   
     4     1    52 1   
     5     4     5 1   
     6     5     6 1   
     7     5    58 1   
     8     5    59 1   
     9     6     7 1   
    10     6     8 1   
    11     6    60 1   
    12     7    12 1   
    13     8     9 1   
    14     8    10 1   
    15     8    61 1   
    16     9    62 1   
    17    10    11 1   
    18    10    12 1   
    19    10    63 1   
    20    11    64 1   
    21    12    13 1   
    22    12    65 1   
    23    13    14 1   
    24    13    22 1   
    25    14    15 2   
    26    14    66 1   
    27    15    16 1   
    28    16    17 ar  
    29    16    22 ar  
    30    17    18 1   
    31    17    19 ar  
    32    18    67 1   
    33    18    68 1   
    34    19    20 ar  
    35    20    21 ar  
    36    20    69 1   
    37    21    22 ar  
    38    23    24 1   
    39    23    39 1   
    40    23    70 1   
    41    24    25 2   
    42    24    26 1   
    43    26    27 1   
    44    26    71 1   
    45    27    28 2   
    46    27    29 1   
    47    29    30 1   
    48    29    39 2   
    49    30    31 1   
    50    30    55 1   
    51    31    32 ar  
    52    31    38 ar  
    53    32    33 ar  
    54    32    72 1   
    55    33    34 1   
    56    33    35 ar  
    57    34    73 1   
    58    34    74 1   
    59    34    75 1   
    60    35    36 1   
    61    35    37 ar  
    62    36    76 1   
    63    36    77 1   
    64    36    78 1   
    65    37    38 ar  
    66    37    79 1   
    67    38    96 1   
    68    39    96 1   
    69    40    41 1   
    70    40    80 1   
    71    40    81 1   
    72    40    96 1   
    73    41    42 1   
    74    41    43 1   
    75    41    82 1   
    76    42    83 1   
    77    43    44 1   
    78    43    45 1   
    79    43    84 1   
    80    44    85 1   
    81    45    46 1   
    82    45    47 1   
    83    45    86 1   
    84    46    87 1   
    85    47    48 1   
    86    47    88 1   
    87    47    89 1   
    88    48    49 1   
    89    49    50 1   
    90    49    51 1   
    91    49    52 1   
    92    53    54 1   
    93    53    56 1   
    94    53    95 1   
    95    53    97 1   
    96    54    55 1   
    97    54    90 1   
    98    54    91 1   
    99    55    57 1   
   100    55    92 1   
   101    56    57 1   
   102    56    93 1   
   103    56    94 1   
@<TRIPOS>SUBSTRUCTURE
     1 UJG         1 TEMP              0 ****  ****    0 ROOT
