@<TRIPOS>MOLECULE
UJG
   97   103     1     0     0
SMALL
abcg2


@<TRIPOS>ATOM
      1 PA         -38.2540    42.9230    82.8000 p5         1 UJG       1.472800
      2 O1A        -39.2820    41.9470    83.2640 o          1 UJG      -0.839000
      3 O2A        -36.8480    42.5140    82.4960 o          1 UJG      -0.839000
      4 O5B        -38.2590    44.1290    83.9120 os         1 UJG      -0.587400
      5 C5B        -37.2860    45.1510    83.8890 c3         1 UJG       0.246600
      6 C4B        -37.8810    46.4020    84.4870 c5         1 UJG       0.149300
      7 O4B        -38.1230    46.2310    85.8880 os         1 UJG      -0.413000
      8 C3B        -36.9730    47.6240    84.4160 c5         1 UJG       0.140300
      9 O3B        -37.0110    48.1970    83.1420 oh         1 UJG      -0.675000
     10 C2B        -37.5330    48.4850    85.5480 c5         1 UJG       0.086300
     11 O2B        -38.7110    49.0900    85.1000 oh         1 UJG      -0.676000
     12 C1B        -37.8340    47.3980    86.5910 c5         1 UJG       0.279300
     13 N9A        -36.6880    47.1700    87.4660 na         1 UJG      -0.290300
     14 C8A        -35.8070    46.1240    87.4860 cc         1 UJG       0.446700
     15 N7A        -34.8860    46.2420    88.3990 nd         1 UJG      -0.588100
     16 C5A        -35.1720    47.4300    89.0190 ca         1 UJG      -0.090600
     17 C6A        -34.5680    48.1320    90.0790 ca         1 UJG       0.440900
     18 N6A        -33.4840    47.6870    90.7160 nv         1 UJG      -1.078900
     19 N1A        -35.1140    49.2950    90.4530 nb         1 UJG      -0.321000
     20 C2A        -36.1940    49.7400    89.8150 ca         1 UJG       0.160900
     21 N3A        -36.8450    49.1790    88.8120 nb         1 UJG      -0.215000
     22 C4A        -36.2900    48.0220    88.4530 ca         1 UJG       0.103500
     23 N1         -42.5780    52.8220    81.5340 ns         1 UJG      -0.519600
     24 C2         -43.2840    53.7260    82.2870 c          1 UJG       0.625000
     25 O2         -43.4550    53.5850    83.4800 o          1 UJG      -0.564000
     26 N3         -43.7980    54.7750    81.5760 ns         1 UJG      -0.482500
     27 C4         -43.6860    55.0040    80.2050 c          1 UJG       0.624600
     28 O4         -44.2720    55.9470    79.7000 o          1 UJG      -0.564000
     29 C4X        -42.8200    54.0800    79.5320 cc         1 UJG      -0.394600
     30 N5         -42.4890    54.2510    78.1660 na         1 UJG       0.027000
     31 C5X        -42.4940    53.0080    77.4760 ca         1 UJG      -0.094000
     32 C6         -42.8410    52.9340    76.1360 ca         1 UJG      -0.082000
     33 C7         -42.7450    51.7460    75.4210 ca         1 UJG      -0.102300
     34 C7M        -43.1110    51.7000    73.9670 c3         1 UJG      -0.035800
     35 C8         -42.3040    50.5950    76.0880 ca         1 UJG      -0.048300
     36 C8M        -42.1910    49.2870    75.3610 c3         1 UJG      -0.052800
     37 C9         -41.9870    50.6610    77.4410 ca         1 UJG      -0.120000
     38 C9A        -42.0740    51.8590    78.1430 ca         1 UJG      -0.018000
     39 C10        -42.3770    52.9710    80.1960 cd         1 UJG       0.199600
     40 C1         -40.8030    51.0610    80.1330 c3         1 UJG       0.070600
     41 C11        -41.3620    49.7920    80.7740 c3         1 UJG       0.159300
     42 O6         -42.0360    50.1880    81.9660 oh         1 UJG      -0.760000
     43 C3         -40.2680    48.7780    81.1150 c3         1 UJG       0.149300
     44 O3         -39.2260    49.4830    81.7420 oh         1 UJG      -0.705000
     45 C12        -39.7660    47.9940    79.8860 c3         1 UJG       0.124300
     46 O7         -40.8510    47.3740    79.2340 oh         1 UJG      -0.806000
     47 C5         -38.6680    47.0080    80.2750 c3         1 UJG       0.206600
     48 O5         -39.0330    46.1920    81.3730 os         1 UJG      -0.622400
     49 P          -39.9300    44.8270    81.2010 p5         1 UJG       1.466800
     50 O1P        -40.3540    44.7340    79.7540 o          1 UJG      -0.838000
     51 O2P        -40.9450    44.8070    82.2920 o          1 UJG      -0.838000
     52 O3P        -38.7760    43.6930    81.4260 os         1 UJG      -0.715800
     53 C01        -39.9180    56.9930    78.3400 c5         1 UJG      -0.085400
     54 C02        -41.3470    56.4800    78.3790 c5         1 UJG      -0.083400
     55 C03        -41.3140    55.0450    77.8730 c5         1 UJG       0.242300
     56 C05        -39.0760    55.9620    79.0820 c5         1 UJG       0.080600
     57 S04        -39.7210    54.3380    78.5570 ss         1 UJG      -0.550000
     58 H2         -36.3940    44.8530    84.4520 h1         1 UJG       0.023200
     59 H3         -36.9600    45.3920    82.8740 h1         1 UJG       0.023200
     60 H4         -38.8280    46.6200    83.9820 h1         1 UJG       0.128700
     61 H5         -35.9460    47.3320    84.6800 h1         1 UJG       0.034700
     62 H6         -36.3280    48.8720    83.0760 ho         1 UJG       0.494000
     63 H7         -36.8100    49.2190    85.9220 h1         1 UJG       0.046700
     64 H8         -39.0440    49.6700    85.7930 ho         1 UJG       0.503000
     65 H9         -38.6740    47.6800    87.2340 h2         1 UJG       0.092700
     66 H10        -35.8940    45.2900    86.8070 h5         1 UJG       0.101800
     67 H11        -33.0840    48.2210    91.4680 hn         1 UJG       0.499000
     68 H12        -33.0480    46.8190    90.4600 hn         1 UJG       0.499000
     69 H13        -36.5850    50.6880    90.1690 h5         1 UJG       0.033100
     70 H14        -42.3990    51.8970    81.9470 hn         1 UJG       0.513000
     71 H15        -44.3590    55.4340    82.1010 hn         1 UJG       0.329500
     72 H16        -43.1730    53.8380    75.6380 ha         1 UJG       0.115000
     73 H17        -42.2670    51.3820    73.3510 hc         1 UJG       0.034700
     74 H18        -43.9200    50.9900    73.7810 hc         1 UJG       0.034700
     75 H19        -43.4350    52.6750    73.6090 hc         1 UJG       0.034700
     76 H20        -41.4940    49.3550    74.5230 hc         1 UJG       0.048367
     77 H21        -41.8430    48.4940    76.0210 hc         1 UJG       0.048367
     78 H22        -43.1520    48.9780    74.9440 hc         1 UJG       0.048367
     79 H23        -41.6740    49.7520    77.9380 ha         1 UJG       0.157000
     80 H24        -40.0840    50.8060    79.3540 h1         1 UJG       0.086200
     81 H25        -40.2440    51.6370    80.8720 h1         1 UJG       0.086200
     82 H26        -42.0760    49.3220    80.0920 h1         1 UJG       0.067700
     83 H27        -42.7340    49.5550    82.1650 ho         1 UJG       0.526000
     84 H28        -40.7290    48.0490    81.7970 h1         1 UJG       0.081700
     85 H29        -38.6790    48.8960    82.2830 ho         1 UJG       0.492000
     86 H30        -39.2900    48.6980    79.1870 h1         1 UJG       0.016700
     87 H31        -40.7660    46.3990    79.3150 ho         1 UJG       0.590000
     88 H32        -38.3890    46.4120    79.4000 h1         1 UJG       0.032700
     89 H33        -37.7760    47.5590    80.5730 h1         1 UJG       0.032700
     90 H37        -41.7030    56.5160    79.4090 hc         1 UJG       0.068200
     91 H38        -42.0260    57.0760    77.7680 hc         1 UJG       0.068200
     92 H39        -41.2100    55.0490    76.7870 h2         1 UJG       0.074700
     93 H40        -38.0170    56.0300    78.8370 h1         1 UJG       0.062200
     94 H41        -39.1850    56.0730    80.1620 h1         1 UJG       0.062200
     95 H35        -39.5720    57.0840    77.3070 hc         1 UJG       0.045700
     96 N10        -41.7950    51.9400    79.5200 na         1 UJG      -0.092000
     97 H36        -39.8290    57.9760    78.8040 hc         1 UJG       0.045700
@<TRIPOS>BOND
     1     1     2 1   
     2     1     3 1   
     3     1     4 1   
     4     1    52 1   
     5     4     5 1   
     6     5     6 1   
     7     5    58 1   
     8     5    59 1   
     9     6     7 1   
    10     6     8 1   
    11     6    60 1   
    12     7    12 1   
    13     8     9 1   
    14     8    10 1   
    15     8    61 1   
    16     9    62 1   
    17    10    11 1   
    18    10    12 1   
    19    10    63 1   
    20    11    64 1   
    21    12    13 1   
    22    12    65 1   
    23    13    14 1   
    24    13    22 1   
    25    14    15 2   
    26    14    66 1   
    27    15    16 1   
    28    16    17 ar  
    29    16    22 ar  
    30    17    18 1   
    31    17    19 ar  
    32    18    67 1   
    33    18    68 1   
    34    19    20 ar  
    35    20    21 ar  
    36    20    69 1   
    37    21    22 ar  
    38    23    24 1   
    39    23    39 1   
    40    23    70 1   
    41    24    25 2   
    42    24    26 1   
    43    26    27 1   
    44    26    71 1   
    45    27    28 2   
    46    27    29 1   
    47    29    30 1   
    48    29    39 2   
    49    30    31 1   
    50    30    55 1   
    51    31    32 ar  
    52    31    38 ar  
    53    32    33 ar  
    54    32    72 1   
    55    33    34 1   
    56    33    35 ar  
    57    34    73 1   
    58    34    74 1   
    59    34    75 1   
    60    35    36 1   
    61    35    37 ar  
    62    36    76 1   
    63    36    77 1   
    64    36    78 1   
    65    37    38 ar  
    66    37    79 1   
    67    38    96 1   
    68    39    96 1   
    69    40    41 1   
    70    40    80 1   
    71    40    81 1   
    72    40    96 1   
    73    41    42 1   
    74    41    43 1   
    75    41    82 1   
    76    42    83 1   
    77    43    44 1   
    78    43    45 1   
    79    43    84 1   
    80    44    85 1   
    81    45    46 1   
    82    45    47 1   
    83    45    86 1   
    84    46    87 1   
    85    47    48 1   
    86    47    88 1   
    87    47    89 1   
    88    48    49 1   
    89    49    50 1   
    90    49    51 1   
    91    49    52 1   
    92    53    54 1   
    93    53    56 1   
    94    53    95 1   
    95    53    97 1   
    96    54    55 1   
    97    54    90 1   
    98    54    91 1   
    99    55    57 1   
   100    55    92 1   
   101    56    57 1   
   102    56    93 1   
   103    56    94 1   
@<TRIPOS>SUBSTRUCTURE
     1 UJG         1 TEMP              0 ****  ****    0 ROOT
