@<TRIPOS>MOLECULE
UJH
   22    23     1     0     0
SMALL
No Charge or Current Charge


@<TRIPOS>ATOM
      1 C1          29.2700   -10.2340   -12.0190 ca         1 UJH      -0.152000
      2 C2          28.1500   -10.8180   -12.6290 ca         1 UJH      -0.058000
      3 O1          31.8740    -7.9890   -14.5560 o          1 UJH      -0.562100
      4 C3          27.9380   -10.6510   -14.0070 ca         1 UJH      -0.161000
      5 C4          28.8400    -9.9020   -14.7970 ca         1 UJH       0.323000
      6 C5          27.8360   -11.7100   -17.3320 c3         1 UJH       0.102900
      7 C6          29.4100    -8.9700   -17.0310 cc         1 UJH       0.070000
      8 C7          30.5080    -8.3990   -16.4170 cd         1 UJH      -0.383200
      9 C8          30.8700    -8.5230   -15.0090 c          1 UJH       0.591900
     10 C9          29.9500    -9.3190   -14.1730 ca         1 UJH      -0.206600
     11 N           28.6120    -9.7570   -16.1840 na         1 UJH      -0.452700
     12 O           27.4940   -10.4160   -16.8030 os         1 UJH      -0.170300
     13 C           30.1710    -9.4820   -12.7880 ca         1 UJH      -0.027000
     14 H1          29.4370   -10.3600   -10.9520 ha         1 UJH       0.121000
     15 H2          27.4470   -11.3980   -12.0350 ha         1 UJH       0.115000
     16 H3          27.0640   -11.1090   -14.4580 ha         1 UJH       0.128000
     17 H4          26.9560   -12.1790   -17.7880 h1         1 UJH       0.053367
     18 H5          28.6150   -11.6240   -18.1000 h1         1 UJH       0.053367
     19 H6          28.2040   -12.3710   -16.5370 h1         1 UJH       0.053367
     20 H7          29.1380    -8.8780   -18.0810 h4         1 UJH       0.210000
     21 H8          31.1980    -7.7910   -16.9890 ha         1 UJH       0.213000
     22 H9          31.0360    -9.0270   -12.3070 ha         1 UJH       0.139000
@<TRIPOS>BOND
     1     1     2 ar  
     2     1    13 ar  
     3     1    14 1   
     4     2     4 ar  
     5     2    15 1   
     6     3     9 2   
     7     4     5 ar  
     8     4    16 1   
     9     5    10 ar  
    10     5    11 1   
    11     6    12 1   
    12     6    17 1   
    13     6    18 1   
    14     6    19 1   
    15     7     8 2   
    16     7    11 1   
    17     7    20 1   
    18     8     9 1   
    19     8    21 1   
    20     9    10 1   
    21    10    13 ar  
    22    11    12 1   
    23    13    22 1   
@<TRIPOS>SUBSTRUCTURE
     1 UJH         1 TEMP              0 ****  ****    0 ROOT
