@<TRIPOS>MOLECULE
UJH
   22    23     1     0     0
SMALL
abcg2


@<TRIPOS>ATOM
      1 C1          29.2640   -10.2220   -12.0760 ca         1 UJH      -0.152000
      2 C2          28.1660   -10.8390   -12.6840 ca         1 UJH      -0.058000
      3 O1          31.8340    -7.9420   -14.4990 o          1 UJH      -0.562100
      4 C3          27.9380   -10.7100   -14.0350 ca         1 UJH      -0.161000
      5 C4          28.8260    -9.9530   -14.8100 ca         1 UJH       0.323000
      6 C5          27.8500   -11.6560   -17.2850 c3         1 UJH       0.102900
      7 C6          29.4600    -9.0450   -16.9250 cc         1 UJH       0.070000
      8 C7          30.5400    -8.4080   -16.4090 cd         1 UJH      -0.383200
      9 C8          30.8640    -8.5000   -15.0100 c          1 UJH       0.591900
     10 C9          29.9310    -9.3190   -14.2170 ca         1 UJH      -0.206600
     11 N           28.6450    -9.7990   -16.1640 na         1 UJH      -0.452700
     12 O           27.5550   -10.3600   -16.7490 os         1 UJH      -0.170300
     13 C           30.1280    -9.4720   -12.8390 ca         1 UJH      -0.027000
     14 H1          29.4280   -10.3330   -11.0120 ha         1 UJH       0.121000
     15 H2          27.4780   -11.4250   -12.0880 ha         1 UJH       0.115000
     16 H3          27.0770   -11.1860   -14.4830 ha         1 UJH       0.128000
     17 H4          26.9080   -12.0240   -17.6840 h1         1 UJH       0.053367
     18 H5          28.5840   -11.5910   -18.0900 h1         1 UJH       0.053367
     19 H6          28.2070   -12.3380   -16.5110 h1         1 UJH       0.053367
     20 H7          29.1950    -8.9830   -17.9720 h4         1 UJH       0.210000
     21 H8          31.1610    -7.8160   -17.0670 ha         1 UJH       0.213000
     22 H9          30.9790    -8.9850   -12.3810 ha         1 UJH       0.139000
@<TRIPOS>BOND
     1     1     2 ar  
     2     1    13 ar  
     3     1    14 1   
     4     2     4 ar  
     5     2    15 1   
     6     3     9 2   
     7     4     5 ar  
     8     4    16 1   
     9     5    10 ar  
    10     5    11 1   
    11     6    12 1   
    12     6    17 1   
    13     6    18 1   
    14     6    19 1   
    15     7     8 2   
    16     7    11 1   
    17     7    20 1   
    18     8     9 1   
    19     8    21 1   
    20     9    10 1   
    21    10    13 ar  
    22    11    12 1   
    23    13    22 1   
@<TRIPOS>SUBSTRUCTURE
     1 UJH         1 TEMP              0 ****  ****    0 ROOT
