@<TRIPOS>MOLECULE
UJI
    9     8     1     0     0
SMALL
abcg2


@<TRIPOS>ATOM
      1 O01         80.7370   -14.2990    13.2050 oh         1 UJI      -0.576450
      2 SB02        79.6760   -13.1690    11.8970 s6         1 UJI       0.507800
      3 O03         78.4870   -12.7150    13.3700 oh         1 UJI      -0.576450
      4 O04         78.3860   -12.2950    10.5720 oh         1 UJI      -0.576450
      5 O05         80.9530   -11.6870    11.9870 oh         1 UJI      -0.576450
      6 H1          81.3850   -14.8430    12.7300 ho         1 UJI       0.449500
      7 H2          77.7090   -12.2410    13.0440 ho         1 UJI       0.449500
      8 H3          78.5300   -12.6300     9.6730 ho         1 UJI       0.449500
      9 H4          80.6710   -10.9620    11.4100 ho         1 UJI       0.449500
@<TRIPOS>BOND
     1     1     2 1   
     2     1     6 1   
     3     2     3 1   
     4     2     4 1   
     5     2     5 1   
     6     3     7 1   
     7     4     8 1   
     8     5     9 1   
@<TRIPOS>SUBSTRUCTURE
     1 UJI         1 TEMP              0 ****  ****    0 ROOT
