@<TRIPOS>MOLECULE
UJI
    9     8     1     0     0
SMALL
No Charge or Current Charge


@<TRIPOS>ATOM
      1 O01         80.2310   -14.2660    12.6400 oh         1 UJI      -0.576450
      2 SB02        79.5590   -12.9140    12.0770 s6         1 UJI       0.507800
      3 O03         78.7340   -12.1430    13.2240 oh         1 UJI      -0.576450
      4 O04         78.6020   -13.2200    10.8190 oh         1 UJI      -0.576450
      5 O05         80.7180   -11.9260    11.5630 oh         1 UJI      -0.576450
      6 H1          81.1850   -14.1570    12.4570 ho         1 UJI       0.449500
      7 H2          77.7990   -12.2240    12.9470 ho         1 UJI       0.449500
      8 H3          79.0930   -12.8690    10.0490 ho         1 UJI       0.449500
      9 H4          80.6140   -11.1220    12.1120 ho         1 UJI       0.449500
@<TRIPOS>BOND
     1     1     2 1   
     2     1     6 1   
     3     2     3 1   
     4     2     4 1   
     5     2     5 1   
     6     3     7 1   
     7     4     8 1   
     8     5     9 1   
@<TRIPOS>SUBSTRUCTURE
     1 UJI         1 TEMP              0 ****  ****    0 ROOT
