@<TRIPOS>MOLECULE
UJK
   23    24     1     0     0
SMALL
No Charge or Current Charge


@<TRIPOS>ATOM
      1 N1         -10.7730     3.3250   -76.0470 na         1 UJK       0.168000
      2 N3         -11.3380     4.2660   -75.2520 nc         1 UJK      -0.258800
      3 C4          -7.7570     4.3030   -78.8250 ca         1 UJK      -0.119000
      4 C5          -7.4340     3.6520   -77.6250 ca         1 UJK      -0.117000
      5 C6          -8.4480     3.3310   -76.7080 ca         1 UJK      -0.105000
      6 C7          -9.7910     3.6610   -76.9810 ca         1 UJK       0.029800
      7 C8         -11.1440     2.0460   -75.7520 cc         1 UJK      -0.200000
      8 C2         -10.1200     4.3130   -78.1970 ca         1 UJK      -0.051300
      9 C3          -9.0930     4.6310   -79.1090 ca         1 UJK      -0.118000
     10 C9         -12.0420     2.2310   -74.7270 cd         1 UJK       0.171500
     11 N2         -12.1330     3.6000   -74.4550 nd         1 UJK      -0.335000
     12 O1         -12.5490    -0.0610   -74.4320 o          1 UJK      -0.707500
     13 O2         -13.5490     1.3290   -73.1420 o          1 UJK      -0.707500
     14 H1          -6.9730     4.5520   -79.5360 ha         1 UJK       0.102000
     15 H2          -6.4000     3.3960   -77.4060 ha         1 UJK       0.108000
     16 H3          -8.1910     2.8280   -75.7780 ha         1 UJK       0.131000
     17 H4         -10.7770     1.1650   -76.2590 h4         1 UJK       0.163000
     18 H5         -11.6600     5.0130   -79.5810 hc         1 UJK       0.051033
     19 H6         -11.9360     5.4740   -77.8960 hc         1 UJK       0.051033
     20 H7         -12.2270     3.8060   -78.4240 hc         1 UJK       0.051033
     21 H8          -9.3300     5.1330   -80.0450 ha         1 UJK       0.105000
     22 C10        -12.7650     1.0850   -74.0520 c          1 UJK       0.637500
     23 C1         -11.5630     4.6710   -78.5440 c3         1 UJK      -0.046800
@<TRIPOS>BOND
     1     1     2 1   
     2     1     6 1   
     3     1     7 1   
     4     2    11 2   
     5     3     4 ar  
     6     3     9 ar  
     7     3    14 1   
     8     4     5 ar  
     9     4    15 1   
    10     5     6 ar  
    11     5    16 1   
    12     6     8 ar  
    13     7    10 2   
    14     7    17 1   
    15     8     9 ar  
    16     8    23 1   
    17     9    21 1   
    18    10    11 1   
    19    10    22 1   
    20    12    22 1   
    21    13    22 1   
    22    18    23 1   
    23    19    23 1   
    24    20    23 1   
@<TRIPOS>SUBSTRUCTURE
     1 UJK         1 TEMP              0 ****  ****    0 ROOT
