@<TRIPOS>MOLECULE
UJK
   23    24     1     0     0
SMALL
bcc


@<TRIPOS>ATOM
      1 N1         -10.7340     3.2460   -76.0890 na         1 UJK       0.117300
      2 N3         -11.4600     4.1520   -75.4350 nc         1 UJK      -0.258800
      3 C4          -7.7730     4.3440   -78.8180 ca         1 UJK      -0.137000
      4 C5          -7.4340     3.6400   -77.6710 ca         1 UJK      -0.135000
      5 C6          -8.4250     3.2900   -76.7690 ca         1 UJK      -0.123000
      6 C7          -9.7440     3.6370   -77.0260 ca         1 UJK       0.029800
      7 C8         -11.0720     2.0020   -75.7070 cc         1 UJK      -0.232600
      8 C2         -10.1150     4.3310   -78.1790 ca         1 UJK      -0.051300
      9 C3          -9.0960     4.6820   -79.0610 ca         1 UJK      -0.136000
     10 C9         -12.0610     2.1860   -74.7740 cd         1 UJK       0.236800
     11 N2         -12.2550     3.5210   -74.6500 nd         1 UJK      -0.335000
     12 O1         -12.5040    -0.0430   -74.2840 o          1 UJK      -0.812800
     13 O2         -13.6600     1.5350   -73.1900 o          1 UJK      -0.812800
     14 H1          -7.0070     4.6280   -79.5280 ha         1 UJK       0.120000
     15 H2          -6.4050     3.3690   -77.4750 ha         1 UJK       0.126000
     16 H3          -8.1790     2.7520   -75.8630 ha         1 UJK       0.149000
     17 H4         -10.6080     1.1230   -76.1200 h4         1 UJK       0.181000
     18 H5         -11.6480     4.9790   -79.5200 hc         1 UJK       0.051033
     19 H6         -11.8920     5.5060   -77.8590 hc         1 UJK       0.051033
     20 H7         -12.2110     3.8380   -78.3030 hc         1 UJK       0.051033
     21 H8          -9.3520     5.2200   -79.9660 ha         1 UJK       0.123000
     22 C10        -12.8170     1.1310   -74.0070 c          1 UJK       0.848100
     23 C1         -11.5410     4.6800   -78.4790 c3         1 UJK      -0.046800
@<TRIPOS>BOND
     1     1     2 1   
     2     1     6 1   
     3     1     7 1   
     4     2    11 2   
     5     3     4 ar  
     6     3     9 ar  
     7     3    14 1   
     8     4     5 ar  
     9     4    15 1   
    10     5     6 ar  
    11     5    16 1   
    12     6     8 ar  
    13     7    10 2   
    14     7    17 1   
    15     8     9 ar  
    16     8    23 1   
    17     9    21 1   
    18    10    11 1   
    19    10    22 1   
    20    12    22 1   
    21    13    22 1   
    22    18    23 1   
    23    19    23 1   
    24    20    23 1   
@<TRIPOS>SUBSTRUCTURE
     1 UJK         1 TEMP              0 ****  ****    0 ROOT
