@<TRIPOS>MOLECULE
UJL
   25    26     1     0     0
SMALL
abcg2


@<TRIPOS>ATOM
      1 C1          97.5400    65.5360    90.4140 c3         1 UJL       0.145100
      2 C2          96.5550    64.9190    92.5400 c3         1 UJL       0.161800
      3 C3          96.7900    64.1920    93.8530 c6         1 UJL       0.240600
      4 C4          97.1580    61.9870    94.6880 c6         1 UJL       0.161600
      5 C5          95.7840    61.8180    95.3270 c6         1 UJL      -0.044100
      6 C6          95.1350    63.1640    95.4720 cc         1 UJL      -0.094300
      7 C7          94.0190    63.4940    96.3010 cc         1 UJL      -0.122000
      8 C8          93.6810    64.8130    96.2330 cd         1 UJL      -0.230000
      9 C9          95.6110    64.2450    94.7840 cd         1 UJL      -0.242300
     10 N1          97.7470    64.8890    91.7060 n7         1 UJL      -0.862400
     11 O1          97.0840    62.8290    93.5360 os         1 UJL      -0.466000
     12 S1          94.7120    65.6770    95.1510 ss         1 UJL       0.192000
     13 H1          98.4340    65.4210    89.8000 h1         1 UJL       0.029700
     14 H2          96.6810    65.1300    89.8570 h1         1 UJL       0.029700
     15 H3          97.3650    66.6040    90.5630 h1         1 UJL       0.029700
     16 H4          96.3090    65.9620    92.7580 h1         1 UJL       0.041700
     17 H5          95.6760    64.4740    92.0460 h1         1 UJL       0.041700
     18 H6          97.6720    64.6330    94.3410 h1         1 UJL       0.062700
     19 H7          97.5560    61.0340    94.3420 h1         1 UJL       0.049700
     20 H8          97.8620    62.4190    95.4100 h1         1 UJL       0.049700
     21 H9          95.1630    61.1610    94.7090 hc         1 UJL       0.058700
     22 H10         95.8890    61.3330    96.3010 hc         1 UJL       0.058700
     23 H11         93.5010    62.7770    96.9240 ha         1 UJL       0.134000
     24 H12         92.8890    65.3310    96.7500 h4         1 UJL       0.151000
     25 H13         98.0080    63.9200    91.5570 hn         1 UJL       0.422000
@<TRIPOS>BOND
     1     1    10 1   
     2     1    13 1   
     3     1    14 1   
     4     1    15 1   
     5     2     3 1   
     6     2    10 1   
     7     2    16 1   
     8     2    17 1   
     9     3     9 1   
    10     3    11 1   
    11     3    18 1   
    12     4     5 1   
    13     4    11 1   
    14     4    19 1   
    15     4    20 1   
    16     5     6 1   
    17     5    21 1   
    18     5    22 1   
    19     6     7 1   
    20     6     9 2   
    21     7     8 2   
    22     7    23 1   
    23     8    12 1   
    24     8    24 1   
    25     9    12 1   
    26    10    25 1   
@<TRIPOS>SUBSTRUCTURE
     1 UJL         1 TEMP              0 ****  ****    0 ROOT
