@<TRIPOS>MOLECULE
UJL
   25    26     1     0     0
SMALL
No Charge or Current Charge


@<TRIPOS>ATOM
      1 C1          97.5510    65.5270    90.3060 c3         1 UJL       0.145100
      2 C2          96.6120    65.0160    92.5660 c3         1 UJL       0.161800
      3 C3          96.8260    64.2330    93.9050 c6         1 UJL       0.240600
      4 C4          97.1610    61.9450    94.7030 c6         1 UJL       0.161600
      5 C5          95.7600    61.8150    95.3580 c6         1 UJL      -0.044100
      6 C6          95.1390    63.1820    95.4840 cc         1 UJL      -0.094300
      7 C7          94.0140    63.4570    96.2980 cc         1 UJL      -0.122000
      8 C8          93.6240    64.7730    96.2640 cd         1 UJL      -0.230000
      9 C9          95.6120    64.2770    94.8170 cd         1 UJL      -0.242300
     10 N1          97.7680    64.9280    91.6360 n7         1 UJL      -0.862400
     11 O1          97.1140    62.8450    93.5680 os         1 UJL      -0.466000
     12 S1          94.6740    65.7320    95.1990 ss         1 UJL       0.192000
     13 H1          98.4480    65.4170    89.6820 h1         1 UJL       0.029700
     14 H2          96.7130    65.0410    89.7880 h1         1 UJL       0.029700
     15 H3          97.3260    66.5990    90.3920 h1         1 UJL       0.029700
     16 H4          96.4070    66.0670    92.8100 h1         1 UJL       0.041700
     17 H5          95.7090    64.6110    92.0880 h1         1 UJL       0.041700
     18 H6          97.6960    64.6580    94.4270 h1         1 UJL       0.062700
     19 H7          97.5110    60.9580    94.3690 h1         1 UJL       0.049700
     20 H8          97.8840    62.3320    95.4350 h1         1 UJL       0.049700
     21 H9          95.1280    61.1640    94.7400 hc         1 UJL       0.058700
     22 H10         95.8540    61.3260    96.3370 hc         1 UJL       0.058700
     23 H11         93.5190    62.6910    96.8880 ha         1 UJL       0.134000
     24 H12         92.8020    65.2440    96.7890 h4         1 UJL       0.151000
     25 H13         97.9710    63.9260    91.5120 hn         1 UJL       0.422000
@<TRIPOS>BOND
     1     1    10 1   
     2     1    13 1   
     3     1    14 1   
     4     1    15 1   
     5     2     3 1   
     6     2    10 1   
     7     2    16 1   
     8     2    17 1   
     9     3     9 1   
    10     3    11 1   
    11     3    18 1   
    12     4     5 1   
    13     4    11 1   
    14     4    19 1   
    15     4    20 1   
    16     5     6 1   
    17     5    21 1   
    18     5    22 1   
    19     6     7 1   
    20     6     9 2   
    21     7     8 2   
    22     7    23 1   
    23     8    12 1   
    24     8    24 1   
    25     9    12 1   
    26    10    25 1   
@<TRIPOS>SUBSTRUCTURE
     1 UJL         1 TEMP              0 ****  ****    0 ROOT
