@<TRIPOS>MOLECULE
UJM
   15    15     1     0     0
SMALL
abcg2


@<TRIPOS>ATOM
      1 C02        -38.1970    56.2800    78.5560 c          1 UJM       0.725000
      2 C04        -39.5270    55.7040    79.1040 c5         1 UJM      -0.020700
      3 C06        -41.7590    55.9350    77.6010 c5         1 UJM       0.086600
      4 C07        -40.7180    54.9480    77.0890 c5         1 UJM      -0.080400
      5 C08        -39.9480    54.4610    78.3080 c5         1 UJM      -0.062400
      6 O01        -38.2410    57.1590    77.6800 o          1 UJM      -0.717500
      7 O03        -37.1800    55.7420    79.0400 o          1 UJM      -0.717500
      8 S05        -40.9630    56.8290    78.9860 ss         1 UJM      -0.515000
      9 H1         -39.3930    55.4440    80.1550 h1         1 UJM       0.061700
     10 H2         -42.0750    56.6440    76.8360 h1         1 UJM       0.037200
     11 H3         -42.6450    55.4160    77.9670 h1         1 UJM       0.037200
     12 H4         -41.1960    54.1260    76.5530 hc         1 UJM       0.047200
     13 H5         -40.0410    55.4450    76.3930 hc         1 UJM       0.047200
     14 H6         -40.5970    53.8320    78.9230 hc         1 UJM       0.035200
     15 H7         -39.0780    53.8600    78.0370 hc         1 UJM       0.035200
@<TRIPOS>BOND
     1     1     2 1   
     2     1     6 1   
     3     1     7 1   
     4     2     5 1   
     5     2     8 1   
     6     2     9 1   
     7     3     4 1   
     8     3     8 1   
     9     3    10 1   
    10     3    11 1   
    11     4     5 1   
    12     4    12 1   
    13     4    13 1   
    14     5    14 1   
    15     5    15 1   
@<TRIPOS>SUBSTRUCTURE
     1 UJM         1 TEMP              0 ****  ****    0 ROOT
