@<TRIPOS>MOLECULE
UJM
   15    15     1     0     0
SMALL
No Charge or Current Charge


@<TRIPOS>ATOM
      1 C02        -38.1040    56.2140    78.6380 c          1 UJM       0.725000
      2 C04        -39.5070    55.6360    79.0670 c5         1 UJM      -0.020700
      3 C06        -41.8260    55.9310    77.7280 c5         1 UJM       0.086600
      4 C07        -40.7640    55.0710    77.0010 c5         1 UJM      -0.080400
      5 C08        -39.9620    54.4320    78.1710 c5         1 UJM      -0.062400
      6 O01        -37.7470    56.1900    77.4670 o          1 UJM      -0.717500
      7 O03        -37.3650    56.6440    79.5160 o          1 UJM      -0.717500
      8 S05        -40.8700    56.9340    78.9610 ss         1 UJM      -0.515000
      9 H1         -39.4060    55.3070    80.1090 h1         1 UJM       0.061700
     10 H2         -42.3740    56.5870    77.0380 h1         1 UJM       0.037200
     11 H3         -42.5550    55.3010    78.2560 h1         1 UJM       0.037200
     12 H4         -41.2310    54.3110    76.3640 hc         1 UJM       0.047200
     13 H5         -40.1310    55.6850    76.3510 hc         1 UJM       0.047200
     14 H6         -40.6020    53.7510    78.7440 hc         1 UJM       0.035200
     15 H7         -39.1150    53.8330    77.8190 hc         1 UJM       0.035200
@<TRIPOS>BOND
     1     1     2 1   
     2     1     6 1   
     3     1     7 1   
     4     2     5 1   
     5     2     8 1   
     6     2     9 1   
     7     3     4 1   
     8     3     8 1   
     9     3    10 1   
    10     3    11 1   
    11     4     5 1   
    12     4    12 1   
    13     4    13 1   
    14     5    14 1   
    15     5    15 1   
@<TRIPOS>SUBSTRUCTURE
     1 UJM         1 TEMP              0 ****  ****    0 ROOT
