@<TRIPOS>MOLECULE
UJN
   58    59     1     0     0
SMALL
No Charge or Current Charge


@<TRIPOS>ATOM
      1 C4          20.3850   -15.6900    12.3810 c6         1 UJN       0.227800
      2 C5          19.9800   -16.8430    13.3620 c6         1 UJN       0.140300
      3 C6          20.1300   -17.2030    15.8050 c3         1 UJN       0.207900
      4 C7          20.1950   -16.4070    17.1050 ca         1 UJN      -0.080300
      5 C8          19.0750   -16.3380    17.9590 ca         1 UJN      -0.060000
      6 C10         20.3400   -14.9820    19.5400 ca         1 UJN      -0.351000
      7 C13         18.6840   -17.5820    12.8330 c6         1 UJN       0.227800
      8 P1          19.0080   -16.1360     7.8770 p5         1 UJN       1.500400
      9 P2          16.4960   -14.8200     8.3620 p5         1 UJN       1.389500
     10 P3          23.0440   -17.1310    10.0960 p5         1 UJN       1.334900
     11 P4          21.4820   -13.3120    12.7800 p5         1 UJN       1.329900
     12 P6          17.8990   -20.3420    10.3390 p5         1 UJN       1.334900
     13 C1          17.2350   -16.2900     7.7710 c3         1 UJN      -0.810400
     14 O1          19.5050   -16.6590     6.5640 o          1 UJN      -0.898500
     15 C2          19.3030   -16.8900    10.4310 c6         1 UJN       0.235300
     16 O2          15.0350   -15.1080     8.3420 o          1 UJN      -1.009833
     17 C3          20.6450   -16.2610    10.9450 c6         1 UJN       0.230800
     18 O3          16.9060   -14.4940     9.7500 o          1 UJN      -1.009833
     19 O4          16.7570   -13.7090     7.4080 o          1 UJN      -1.009833
     20 O5          19.5710   -14.7840     8.1690 o          1 UJN      -0.898500
     21 O6          19.3370   -17.2290     9.0280 os         1 UJN      -0.528400
     22 O7          21.6960   -17.2690    10.9740 os         1 UJN      -0.551900
     23 O8          23.8460   -15.9530    10.5220 o          1 UJN      -0.967000
     24 C9          19.1500   -15.6280    19.1730 ca         1 UJN      -0.205000
     25 O9          22.7260   -17.0210     8.6480 o          1 UJN      -0.967000
     26 O10         23.8660   -18.3560    10.3060 o          1 UJN      -0.967000
     27 C11         21.4560   -15.0420    18.6930 ca         1 UJN      -0.205000
     28 O11         21.5060   -14.9210    12.8940 os         1 UJN      -0.597900
     29 C12         21.3860   -15.7510    17.4780 ca         1 UJN      -0.060000
     30 O12         21.3910   -12.8910    11.3570 o          1 UJN      -0.973500
     31 O13         20.3230   -12.7600    13.5330 o          1 UJN      -0.973500
     32 C14         18.8980   -18.1000    11.3520 c6         1 UJN       0.230800
     33 O14         22.7350   -12.7630    13.3690 o          1 UJN      -0.973500
     34 O15         19.8350   -16.3110    14.7110 os         1 UJN      -0.421000
     35 O16         18.2690   -18.6430    13.7360 os         1 UJN      -0.597900
     36 O17         15.7130   -18.6470    13.4860 o          1 UJN      -0.973500
     37 O18         16.7130   -19.7260    15.4070 o          1 UJN      -0.973500
     38 O19         16.6920   -17.3150    15.2530 o          1 UJN      -0.973500
     39 O20         17.7380   -18.8100    10.8340 os         1 UJN      -0.551900
     40 O21         18.3980   -21.2110    11.4410 o          1 UJN      -0.967000
     41 O22         16.5740   -20.8570     9.8900 o          1 UJN      -0.967000
     42 O23         18.8480   -20.4380     9.1950 o          1 UJN      -0.967000
     43 H1          19.5180   -15.0160    12.3070 h1         1 UJN       0.035200
     44 H2          20.8050   -17.5700    13.3740 h1         1 UJN       0.040700
     45 H3          19.3740   -17.9900    15.9000 h1         1 UJN       0.028700
     46 H4          21.0990   -17.6940    15.6470 h1         1 UJN       0.028700
     47 H5          18.1490   -16.8370    17.6800 ha         1 UJN       0.161500
     48 H6          20.3960   -14.4370    20.4760 ha         1 UJN      -0.038000
     49 H7          17.8820   -16.8290    12.7930 h1         1 UJN       0.035200
     50 H8          16.9050   -17.1350     8.3750 hc         1 UJN       0.059700
     51 H9          16.9420   -16.4490     6.7340 hc         1 UJN       0.059700
     52 H10         18.5250   -16.1310    10.5610 h1         1 UJN       0.010700
     53 H12         20.9410   -15.4350    10.2840 h1         1 UJN       0.090200
     54 H16         18.2840   -15.5810    19.8270 ha         1 UJN       0.002500
     55 H18         22.3780   -14.5420    18.9750 ha         1 UJN       0.002500
     56 H19         22.2560   -15.7930    16.8250 ha         1 UJN       0.161500
     57 H21         19.7480   -18.7990    11.3740 h1         1 UJN       0.090200
     58 P5          16.8270   -18.5730    14.4690 p5         1 UJN       1.329900
@<TRIPOS>BOND
     1     1     2 1   
     2     1    17 1   
     3     1    28 1   
     4     1    43 1   
     5     2     7 1   
     6     2    34 1   
     7     2    44 1   
     8     3     4 1   
     9     3    34 1   
    10     3    45 1   
    11     3    46 1   
    12     4     5 ar  
    13     4    29 ar  
    14     5    24 ar  
    15     5    47 1   
    16     6    24 ar  
    17     6    27 ar  
    18     6    48 1   
    19     7    32 1   
    20     7    35 1   
    21     7    49 1   
    22     8    13 1   
    23     8    14 1   
    24     8    20 1   
    25     8    21 1   
    26     9    13 1   
    27     9    16 1   
    28     9    18 1   
    29     9    19 1   
    30    10    22 1   
    31    10    23 1   
    32    10    25 1   
    33    10    26 1   
    34    11    28 1   
    35    11    30 1   
    36    11    31 1   
    37    11    33 1   
    38    12    39 1   
    39    12    40 1   
    40    12    41 1   
    41    12    42 1   
    42    13    50 1   
    43    13    51 1   
    44    15    17 1   
    45    15    21 1   
    46    15    32 1   
    47    15    52 1   
    48    17    22 1   
    49    17    53 1   
    50    24    54 1   
    51    27    29 ar  
    52    27    55 1   
    53    29    56 1   
    54    32    39 1   
    55    32    57 1   
    56    35    58 1   
    57    36    58 1   
    58    37    58 1   
    59    38    58 1   
@<TRIPOS>SUBSTRUCTURE
     1 UJN         1 TEMP              0 ****  ****    0 ROOT
