@<TRIPOS>MOLECULE
UJN
   58    59     1     0     0
SMALL
abcg2


@<TRIPOS>ATOM
      1 C4          20.5230   -15.7760    12.5780 c6         1 UJN       0.227800
      2 C5          20.0190   -16.9410    13.4250 c6         1 UJN       0.140300
      3 C6          20.3900   -17.2350    15.7850 c3         1 UJN       0.207900
      4 C7          20.2870   -16.4500    17.0620 ca         1 UJN      -0.080300
      5 C8          19.3030   -16.7480    18.0020 ca         1 UJN      -0.060000
      6 C10         20.0530   -14.9340    19.4020 ca         1 UJN      -0.351000
      7 C13         18.7330   -17.5720    12.8670 c6         1 UJN       0.227800
      8 P1          18.9300   -15.9260     8.0790 p5         1 UJN       1.500400
      9 P2          16.0010   -14.9700     7.1280 p5         1 UJN       1.389500
     10 P3          23.0790   -17.0660    10.0730 p5         1 UJN       1.334900
     11 P4          22.0640   -13.6520    13.2500 p5         1 UJN       1.329900
     12 P6          17.5630   -20.0610    10.1810 p5         1 UJN       1.334900
     13 C1          17.1200   -16.1170     8.0970 c3         1 UJN      -0.810400
     14 O1          19.5100   -16.4690     6.7980 o          1 UJN      -0.898500
     15 C2          19.3410   -16.7420    10.6060 c6         1 UJN       0.235300
     16 O2          14.6360   -15.6750     7.1810 o          1 UJN      -1.009833
     17 C3          20.6870   -16.2140    11.1210 c6         1 UJN       0.230800
     18 O3          15.9960   -13.6270     7.8700 o          1 UJN      -1.009833
     19 O4          16.5600   -14.8670     5.7030 o          1 UJN      -1.009833
     20 O5          19.3310   -14.5380     8.5130 o          1 UJN      -0.898500
     21 O6          19.4270   -17.0070     9.2120 os         1 UJN      -0.528400
     22 O7          21.6800   -17.2190    10.9940 os         1 UJN      -0.551900
     23 O8          24.2150   -16.9020    11.0820 o          1 UJN      -0.967000
     24 C9          19.1860   -15.9970    19.1690 ca         1 UJN      -0.205000
     25 O9          22.8840   -15.8480     9.1750 o          1 UJN      -0.967000
     26 O10         23.1350   -18.3980     9.3290 o          1 UJN      -0.967000
     27 C11         21.0370   -14.6250    18.4640 ca         1 UJN      -0.205000
     28 O11         21.7290   -15.2920    13.1390 os         1 UJN      -0.597900
     29 C12         21.1510   -15.3790    17.3020 ca         1 UJN      -0.060000
     30 O12         22.2450   -13.1430    11.8220 o          1 UJN      -0.973500
     31 O13         20.8750   -13.0150    13.9690 o          1 UJN      -0.973500
     32 C14         18.9120   -17.9980    11.3890 c6         1 UJN       0.230800
     33 O14         23.3530   -13.6690    14.0680 o          1 UJN      -0.973500
     34 O15         19.7970   -16.4590    14.7480 os         1 UJN      -0.421000
     35 O16         18.3770   -18.6610    13.6960 os         1 UJN      -0.597900
     36 O17         16.0430   -19.6820    13.9700 o          1 UJN      -0.973500
     37 O18         17.5400   -19.2710    15.9830 o          1 UJN      -0.973500
     38 O19         16.4570   -17.2930    14.7500 o          1 UJN      -0.973500
     39 O20         17.7020   -18.5320    10.8860 os         1 UJN      -0.551900
     40 O21         18.0870   -21.0800    11.1910 o          1 UJN      -0.967000
     41 O22         16.0540   -20.1180     9.9590 o          1 UJN      -0.967000
     42 O23         18.3760   -20.0600     8.8900 o          1 UJN      -0.967000
     43 H1          19.7630   -14.9870    12.6070 h1         1 UJN       0.035200
     44 H2          20.7970   -17.7100    13.4480 h1         1 UJN       0.040700
     45 H3          19.8670   -18.1900    15.8790 h1         1 UJN       0.028700
     46 H4          21.4420   -17.4220    15.5410 h1         1 UJN       0.028700
     47 H5          18.6250   -17.5700    17.8050 ha         1 UJN       0.161500
     48 H6          19.9640   -14.3480    20.3090 ha         1 UJN      -0.038000
     49 H7          17.9370   -16.8220    12.9060 h1         1 UJN       0.035200
     50 H8          16.7920   -16.0650     9.1400 hc         1 UJN       0.059700
     51 H9          16.9180   -17.1380     7.7610 hc         1 UJN       0.059700
     52 H10         18.5840   -15.9680    10.7780 h1         1 UJN       0.010700
     53 H12         20.9640   -15.3510    10.5220 h1         1 UJN       0.090200
     54 H16         18.4190   -16.2400    19.8930 ha         1 UJN       0.002500
     55 H18         21.7130   -13.7980    18.6410 ha         1 UJN       0.002500
     56 H19         21.9150   -15.1380    16.5720 ha         1 UJN       0.161500
     57 H21         19.7090   -18.7440    11.3230 h1         1 UJN       0.090200
     58 P5          17.0000   -18.7150    14.6660 p5         1 UJN       1.329900
@<TRIPOS>BOND
     1     1     2 1   
     2     1    17 1   
     3     1    28 1   
     4     1    43 1   
     5     2     7 1   
     6     2    34 1   
     7     2    44 1   
     8     3     4 1   
     9     3    34 1   
    10     3    45 1   
    11     3    46 1   
    12     4     5 ar  
    13     4    29 ar  
    14     5    24 ar  
    15     5    47 1   
    16     6    24 ar  
    17     6    27 ar  
    18     6    48 1   
    19     7    32 1   
    20     7    35 1   
    21     7    49 1   
    22     8    13 1   
    23     8    14 1   
    24     8    20 1   
    25     8    21 1   
    26     9    13 1   
    27     9    16 1   
    28     9    18 1   
    29     9    19 1   
    30    10    22 1   
    31    10    23 1   
    32    10    25 1   
    33    10    26 1   
    34    11    28 1   
    35    11    30 1   
    36    11    31 1   
    37    11    33 1   
    38    12    39 1   
    39    12    40 1   
    40    12    41 1   
    41    12    42 1   
    42    13    50 1   
    43    13    51 1   
    44    15    17 1   
    45    15    21 1   
    46    15    32 1   
    47    15    52 1   
    48    17    22 1   
    49    17    53 1   
    50    24    54 1   
    51    27    29 ar  
    52    27    55 1   
    53    29    56 1   
    54    32    39 1   
    55    32    57 1   
    56    35    58 1   
    57    36    58 1   
    58    37    58 1   
    59    38    58 1   
@<TRIPOS>SUBSTRUCTURE
     1 UJN         1 TEMP              0 ****  ****    0 ROOT
