@<TRIPOS>MOLECULE
UJO
   90    89     1     0     0
SMALL
No Charge or Current Charge


@<TRIPOS>ATOM
      1 C10        181.5830   252.1440   170.7620 c3         1 UJO      -0.064400
      2 C11        181.0640   251.3640   171.9920 c3         1 UJO      -0.154400
      3 C12        181.0530   249.8480   171.7740 c          1 UJO       0.607100
      4 C01        175.1010   257.9860   166.0710 c3         1 UJO      -0.089100
      5 C02        176.3200   257.7980   166.9950 c3         1 UJO      -0.074400
      6 C03        177.3840   256.8490   166.4030 c3         1 UJO      -0.080400
      7 C04        178.6040   256.6470   167.3260 c3         1 UJO      -0.076400
      8 C05        179.6880   255.7350   166.7020 c3         1 UJO      -0.072400
      9 C06        180.9380   255.5320   167.5930 c3         1 UJO      -0.073400
     10 C07        180.6860   254.6700   168.8520 c3         1 UJO      -0.077400
     11 C08        181.9400   254.5090   169.7440 c3         1 UJO      -0.073400
     12 C09        181.6920   253.6660   171.0180 c3         1 UJO      -0.075400
     13 C15        181.7960   247.6380   172.8590 c3         1 UJO       0.076700
     14 C16        182.5050   247.2530   174.1870 c3         1 UJO       0.145600
     15 C18        180.4160   246.9020   172.7390 c3         1 UJO       0.209500
     16 C19        179.2950   247.5950   173.5130 c2         1 UJO      -0.270200
     17 C20        177.9610   247.4020   173.4540 c2         1 UJO      -0.176200
     18 C21        177.1730   246.4280   172.5920 c3         1 UJO      -0.047200
     19 C22        176.2960   247.1450   171.5360 c3         1 UJO      -0.066400
     20 C23        177.1190   247.8290   170.4180 c3         1 UJO      -0.079400
     21 C24        176.2930   248.5940   169.3590 c3         1 UJO      -0.072400
     22 C25        175.6530   249.9050   169.8820 c3         1 UJO      -0.073400
     23 C26        174.9440   250.7520   168.7970 c3         1 UJO      -0.072400
     24 C27        175.8950   251.3420   167.7270 c3         1 UJO      -0.076400
     25 C28        175.1860   252.2910   166.7360 c3         1 UJO      -0.075400
     26 C29        176.1350   252.8360   165.6460 c3         1 UJO      -0.076400
     27 C30        175.4400   253.8090   164.6690 c3         1 UJO      -0.078400
     28 C31        176.3900   254.3540   163.5800 c3         1 UJO      -0.075400
     29 C32        175.7220   255.3970   162.6650 c3         1 UJO      -0.089100
     30 N14        181.7320   249.1180   172.7270 ns         1 UJO      -0.493900
     31 O13        180.4570   249.3290   170.8420 o          1 UJO      -0.632100
     32 O17        183.7390   247.9750   174.3400 oh         1 UJO      -0.665000
     33 O33        180.0780   246.8100   171.3610 oh         1 UJO      -0.665000
     34 H1         180.9070   251.9530   169.9200 hc         1 UJO       0.056700
     35 H2         182.5680   251.7570   170.4700 hc         1 UJO       0.056700
     36 H3         181.6650   251.6120   172.8760 hc         1 UJO       0.055700
     37 H4         180.0330   251.6780   172.1930 hc         1 UJO       0.055700
     38 H5         174.3800   258.6760   166.5260 hc         1 UJO       0.031367
     39 H6         175.4080   258.4000   165.1030 hc         1 UJO       0.031367
     40 H7         174.5960   257.0290   165.8950 hc         1 UJO       0.031367
     41 H8         175.9790   257.4050   167.9610 hc         1 UJO       0.035700
     42 H9         176.7750   258.7770   167.1890 hc         1 UJO       0.035700
     43 H10        177.7200   257.2420   165.4350 hc         1 UJO       0.038700
     44 H11        176.9220   255.8750   166.2120 hc         1 UJO       0.038700
     45 H12        179.0460   257.6230   167.5590 hc         1 UJO       0.037200
     46 H13        178.2570   256.2170   168.2730 hc         1 UJO       0.037200
     47 H14        179.2520   254.7570   166.4610 hc         1 UJO       0.037700
     48 H15        180.0100   256.1760   165.7510 hc         1 UJO       0.037700
     49 H16        181.7200   255.0520   166.9920 hc         1 UJO       0.035700
     50 H17        181.3310   256.5130   167.8920 hc         1 UJO       0.035700
     51 H18        179.8890   255.1220   169.4540 hc         1 UJO       0.041200
     52 H19        180.3250   253.6850   168.5350 hc         1 UJO       0.041200
     53 H20        182.7570   254.0640   169.1630 hc         1 UJO       0.038200
     54 H21        182.2790   255.5070   170.0500 hc         1 UJO       0.038200
     55 H22        182.5140   253.8410   171.7240 hc         1 UJO       0.035200
     56 H23        180.7790   254.0240   171.5100 hc         1 UJO       0.035200
     57 H24        182.4380   247.2680   172.0490 h1         1 UJO       0.078700
     58 H25        181.8360   247.4760   175.0290 h1         1 UJO       0.031700
     59 H26        182.6930   246.1710   174.1920 h1         1 UJO       0.031700
     60 H27        180.5350   245.8850   173.1410 h1         1 UJO       0.066700
     61 H28        179.6620   248.3400   174.2190 ha         1 UJO       0.161000
     62 H29        177.3180   248.0020   174.1020 ha         1 UJO       0.155000
     63 H30        176.5170   245.8320   173.2380 hc         1 UJO       0.053700
     64 H31        177.8290   245.7060   172.0920 hc         1 UJO       0.053700
     65 H32        175.6640   247.8850   172.0420 hc         1 UJO       0.033700
     66 H33        175.6200   246.4120   171.0790 hc         1 UJO       0.033700
     67 H34        177.7050   247.0590   169.9020 hc         1 UJO       0.049200
     68 H35        177.8370   248.5230   170.8680 hc         1 UJO       0.049200
     69 H36        176.9670   248.8280   168.5280 hc         1 UJO       0.037200
     70 H37        175.5120   247.9370   168.9550 hc         1 UJO       0.037200
     71 H38        176.4240   250.5190   170.3640 hc         1 UJO       0.036200
     72 H39        174.9200   249.6590   170.6600 hc         1 UJO       0.036200
     73 H40        174.4200   251.5770   169.2940 hc         1 UJO       0.034700
     74 H41        174.1750   250.1420   168.3060 hc         1 UJO       0.034700
     75 H42        176.3580   250.5280   167.1570 hc         1 UJO       0.039200
     76 H43        176.7060   251.8870   168.2260 hc         1 UJO       0.039200
     77 H44        174.7510   253.1310   167.2910 hc         1 UJO       0.035700
     78 H45        174.3550   251.7580   166.2570 hc         1 UJO       0.035700
     79 H46        176.5550   251.9950   165.0800 hc         1 UJO       0.038200
     80 H47        176.9780   253.3490   166.1280 hc         1 UJO       0.038200
     81 H48        175.0210   254.6480   165.2370 hc         1 UJO       0.037700
     82 H49        174.5970   253.2980   164.1880 hc         1 UJO       0.037700
     83 H50        176.7540   253.5200   162.9660 hc         1 UJO       0.037200
     84 H51        177.2710   254.8080   164.0510 hc         1 UJO       0.037200
     85 H52        176.4300   255.7490   161.9050 hc         1 UJO       0.031033
     86 H53        174.8540   254.9650   162.1520 hc         1 UJO       0.031033
     87 H54        175.3850   256.2640   163.2470 hc         1 UJO       0.031033
     88 H55        182.2290   249.6550   173.4270 hn         1 UJO       0.322500
     89 H56        184.1580   247.6600   175.1730 ho         1 UJO       0.450000
     90 H57        180.1170   247.7550   171.0440 ho         1 UJO       0.484000
@<TRIPOS>BOND
     1     1     2 1   
     2     1    12 1   
     3     1    34 1   
     4     1    35 1   
     5     2     3 1   
     6     2    36 1   
     7     2    37 1   
     8     3    30 1   
     9     3    31 2   
    10     4     5 1   
    11     4    38 1   
    12     4    39 1   
    13     4    40 1   
    14     5     6 1   
    15     5    41 1   
    16     5    42 1   
    17     6     7 1   
    18     6    43 1   
    19     6    44 1   
    20     7     8 1   
    21     7    45 1   
    22     7    46 1   
    23     8     9 1   
    24     8    47 1   
    25     8    48 1   
    26     9    10 1   
    27     9    49 1   
    28     9    50 1   
    29    10    11 1   
    30    10    51 1   
    31    10    52 1   
    32    11    12 1   
    33    11    53 1   
    34    11    54 1   
    35    12    55 1   
    36    12    56 1   
    37    13    14 1   
    38    13    15 1   
    39    13    30 1   
    40    13    57 1   
    41    14    32 1   
    42    14    58 1   
    43    14    59 1   
    44    15    16 1   
    45    15    33 1   
    46    15    60 1   
    47    16    17 2   
    48    16    61 1   
    49    17    18 1   
    50    17    62 1   
    51    18    19 1   
    52    18    63 1   
    53    18    64 1   
    54    19    20 1   
    55    19    65 1   
    56    19    66 1   
    57    20    21 1   
    58    20    67 1   
    59    20    68 1   
    60    21    22 1   
    61    21    69 1   
    62    21    70 1   
    63    22    23 1   
    64    22    71 1   
    65    22    72 1   
    66    23    24 1   
    67    23    73 1   
    68    23    74 1   
    69    24    25 1   
    70    24    75 1   
    71    24    76 1   
    72    25    26 1   
    73    25    77 1   
    74    25    78 1   
    75    26    27 1   
    76    26    79 1   
    77    26    80 1   
    78    27    28 1   
    79    27    81 1   
    80    27    82 1   
    81    28    29 1   
    82    28    83 1   
    83    28    84 1   
    84    29    85 1   
    85    29    86 1   
    86    29    87 1   
    87    30    88 1   
    88    32    89 1   
    89    33    90 1   
@<TRIPOS>SUBSTRUCTURE
     1 UJO         1 TEMP              0 ****  ****    0 ROOT
