@<TRIPOS>MOLECULE
UJO
   90    89     1     0     0
SMALL
abcg2


@<TRIPOS>ATOM
      1 C10        181.4240   251.9390   170.7600 c3         1 UJO      -0.064400
      2 C11        181.2320   251.1660   172.0580 c3         1 UJO      -0.154400
      3 C12        181.2340   249.6630   171.8970 c          1 UJO       0.607100
      4 C01        175.1020   257.8090   166.0950 c3         1 UJO      -0.089100
      5 C02        176.0550   257.1390   167.0740 c3         1 UJO      -0.074400
      6 C03        177.3620   256.6970   166.4290 c3         1 UJO      -0.080400
      7 C04        178.3770   256.1540   167.4280 c3         1 UJO      -0.076400
      8 C05        179.6020   255.5420   166.7550 c3         1 UJO      -0.072400
      9 C06        180.7890   255.3300   167.6880 c3         1 UJO      -0.073400
     10 C07        180.5260   254.4050   168.8720 c3         1 UJO      -0.077400
     11 C08        181.7450   254.2850   169.7800 c3         1 UJO      -0.073400
     12 C09        181.5280   253.4370   171.0290 c3         1 UJO      -0.075400
     13 C15        181.7840   247.5350   173.0490 c3         1 UJO       0.076700
     14 C16        182.3700   247.1800   174.4090 c3         1 UJO       0.145600
     15 C18        180.4410   246.7910   172.8430 c3         1 UJO       0.209500
     16 C19        179.3140   247.5170   173.5400 c2         1 UJO      -0.270200
     17 C20        178.0040   247.4640   173.3040 c2         1 UJO      -0.176200
     18 C21        177.2210   246.6630   172.3100 c3         1 UJO      -0.047200
     19 C22        176.4640   247.5420   171.3080 c3         1 UJO      -0.066400
     20 C23        177.3740   248.2170   170.2910 c3         1 UJO      -0.079400
     21 C24        176.6470   249.1200   169.2970 c3         1 UJO      -0.072400
     22 C25        176.1860   250.4450   169.8960 c3         1 UJO      -0.073400
     23 C26        175.3950   251.3220   168.9300 c3         1 UJO      -0.072400
     24 C27        176.1830   251.7740   167.7060 c3         1 UJO      -0.076400
     25 C28        175.3810   252.6760   166.7770 c3         1 UJO      -0.075400
     26 C29        176.1440   253.0620   165.5180 c3         1 UJO      -0.076400
     27 C30        175.3350   253.9380   164.5720 c3         1 UJO      -0.078400
     28 C31        176.1010   254.3570   163.3240 c3         1 UJO      -0.075400
     29 C32        175.2840   255.2590   162.4100 c3         1 UJO      -0.089100
     30 N14        181.6810   248.9820   172.9580 ns         1 UJO      -0.493900
     31 O13        180.8180   249.1180   170.8750 o          1 UJO      -0.632100
     32 O17        183.5680   247.8950   174.5920 oh         1 UJO      -0.665000
     33 O33        180.2100   246.5050   171.4880 oh         1 UJO      -0.665000
     34 H1         180.5980   251.7300   170.0770 hc         1 UJO       0.056700
     35 H2         182.3370   251.6030   170.2580 hc         1 UJO       0.056700
     36 H3         181.9930   251.4630   172.7850 hc         1 UJO       0.055700
     37 H4         180.2700   251.4390   172.5050 hc         1 UJO       0.055700
     38 H5         174.1700   258.1020   166.5790 hc         1 UJO       0.031367
     39 H6         175.5480   258.7070   165.6640 hc         1 UJO       0.031367
     40 H7         174.8470   257.1420   165.2680 hc         1 UJO       0.031367
     41 H8         175.5680   256.2700   167.5280 hc         1 UJO       0.035700
     42 H9         176.2720   257.8280   167.8960 hc         1 UJO       0.035700
     43 H10        177.8080   257.5390   165.8890 hc         1 UJO       0.038700
     44 H11        177.1530   255.9350   165.6700 hc         1 UJO       0.038700
     45 H12        178.6890   256.9670   168.0940 hc         1 UJO       0.037200
     46 H13        177.8930   255.4090   168.0680 hc         1 UJO       0.037200
     47 H14        179.3190   254.5930   166.2880 hc         1 UJO       0.037700
     48 H15        179.9210   256.1950   165.9350 hc         1 UJO       0.037700
     49 H16        181.6320   254.9360   167.1110 hc         1 UJO       0.035700
     50 H17        181.1140   256.3050   168.0690 hc         1 UJO       0.035700
     51 H18        179.6850   254.7850   169.4610 hc         1 UJO       0.041200
     52 H19        180.2210   253.4190   168.5050 hc         1 UJO       0.041200
     53 H20        182.5900   253.8830   169.2100 hc         1 UJO       0.038200
     54 H21        182.0430   255.2920   170.0890 hc         1 UJO       0.038200
     55 H22        182.3570   253.6070   171.7220 hc         1 UJO       0.035200
     56 H23        180.6260   253.7800   171.5480 hc         1 UJO       0.035200
     57 H24        182.4740   247.1700   172.2780 h1         1 UJO       0.078700
     58 H25        181.6430   247.4100   175.1990 h1         1 UJO       0.031700
     59 H26        182.5340   246.0960   174.4300 h1         1 UJO       0.031700
     60 H27        180.5660   245.8130   173.3250 h1         1 UJO       0.066700
     61 H28        179.6240   248.1540   174.3630 ha         1 UJO       0.161000
     62 H29        177.3830   248.0870   173.9450 ha         1 UJO       0.155000
     63 H30        176.4860   246.0770   172.8720 hc         1 UJO       0.053700
     64 H31        177.8520   245.9530   171.7800 hc         1 UJO       0.053700
     65 H32        175.8780   248.2870   171.8560 hc         1 UJO       0.033700
     66 H33        175.7370   246.9200   170.7760 hc         1 UJO       0.033700
     67 H34        177.9110   247.4380   169.7410 hc         1 UJO       0.049200
     68 H35        178.1420   248.8020   170.8040 hc         1 UJO       0.049200
     69 H36        177.3160   249.3180   168.4560 hc         1 UJO       0.037200
     70 H37        175.7850   248.5870   168.8790 hc         1 UJO       0.037200
     71 H38        177.0630   250.9980   170.2520 hc         1 UJO       0.036200
     72 H39        175.5700   250.2550   170.7800 hc         1 UJO       0.036200
     73 H40        175.0330   252.2060   169.4650 hc         1 UJO       0.034700
     74 H41        174.5000   250.7800   168.6030 hc         1 UJO       0.034700
     75 H42        176.5220   250.9030   167.1380 hc         1 UJO       0.039200
     76 H43        177.0910   252.2980   168.0290 hc         1 UJO       0.039200
     77 H44        175.0790   253.5830   167.3140 hc         1 UJO       0.035700
     78 H45        174.4520   252.1680   166.4950 hc         1 UJO       0.035700
     79 H46        176.4580   252.1540   164.9910 hc         1 UJO       0.038200
     80 H47        177.0670   253.5810   165.7990 hc         1 UJO       0.038200
     81 H48        174.9990   254.8330   165.1070 hc         1 UJO       0.037700
     82 H49        174.4230   253.4070   164.2760 hc         1 UJO       0.037700
     83 H50        176.4180   253.4650   162.7760 hc         1 UJO       0.037200
     84 H51        177.0210   254.8720   163.6190 hc         1 UJO       0.037200
     85 H52        175.8440   255.5430   161.5180 hc         1 UJO       0.031033
     86 H53        174.3690   254.7620   162.0820 hc         1 UJO       0.031033
     87 H54        174.9930   256.1770   162.9240 hc         1 UJO       0.031033
     88 H55        182.0880   249.5130   173.7140 hn         1 UJO       0.322500
     89 H56        183.8370   247.8070   175.5110 ho         1 UJO       0.450000
     90 H57        180.2870   247.3520   171.0180 ho         1 UJO       0.484000
@<TRIPOS>BOND
     1     1     2 1   
     2     1    12 1   
     3     1    34 1   
     4     1    35 1   
     5     2     3 1   
     6     2    36 1   
     7     2    37 1   
     8     3    30 1   
     9     3    31 2   
    10     4     5 1   
    11     4    38 1   
    12     4    39 1   
    13     4    40 1   
    14     5     6 1   
    15     5    41 1   
    16     5    42 1   
    17     6     7 1   
    18     6    43 1   
    19     6    44 1   
    20     7     8 1   
    21     7    45 1   
    22     7    46 1   
    23     8     9 1   
    24     8    47 1   
    25     8    48 1   
    26     9    10 1   
    27     9    49 1   
    28     9    50 1   
    29    10    11 1   
    30    10    51 1   
    31    10    52 1   
    32    11    12 1   
    33    11    53 1   
    34    11    54 1   
    35    12    55 1   
    36    12    56 1   
    37    13    14 1   
    38    13    15 1   
    39    13    30 1   
    40    13    57 1   
    41    14    32 1   
    42    14    58 1   
    43    14    59 1   
    44    15    16 1   
    45    15    33 1   
    46    15    60 1   
    47    16    17 2   
    48    16    61 1   
    49    17    18 1   
    50    17    62 1   
    51    18    19 1   
    52    18    63 1   
    53    18    64 1   
    54    19    20 1   
    55    19    65 1   
    56    19    66 1   
    57    20    21 1   
    58    20    67 1   
    59    20    68 1   
    60    21    22 1   
    61    21    69 1   
    62    21    70 1   
    63    22    23 1   
    64    22    71 1   
    65    22    72 1   
    66    23    24 1   
    67    23    73 1   
    68    23    74 1   
    69    24    25 1   
    70    24    75 1   
    71    24    76 1   
    72    25    26 1   
    73    25    77 1   
    74    25    78 1   
    75    26    27 1   
    76    26    79 1   
    77    26    80 1   
    78    27    28 1   
    79    27    81 1   
    80    27    82 1   
    81    28    29 1   
    82    28    83 1   
    83    28    84 1   
    84    29    85 1   
    85    29    86 1   
    86    29    87 1   
    87    30    88 1   
    88    32    89 1   
    89    33    90 1   
@<TRIPOS>SUBSTRUCTURE
     1 UJO         1 TEMP              0 ****  ****    0 ROOT
