@<TRIPOS>MOLECULE
UJP
   15    15     1     0     0
SMALL
abcg2


@<TRIPOS>ATOM
      1 C02        -38.5060    56.3580    78.4290 c          1 UJP       0.730000
      2 C04        -39.6910    55.7600    79.2170 c5         1 UJP      -0.017700
      3 C06        -41.2690    55.1370    77.2260 c5         1 UJP       0.090600
      4 C07        -41.7420    56.4170    77.9380 c5         1 UJP      -0.057400
      5 C08        -40.9600    56.6020    79.2480 c5         1 UJP      -0.048400
      6 O01        -38.7860    57.1990    77.5520 o          1 UJP      -0.723000
      7 O03        -37.3770    55.9250    78.7260 o          1 UJP      -0.723000
      8 S05        -40.2330    54.2130    78.4030 ss         1 UJP      -0.534000
      9 H1         -39.3680    55.4880    80.2250 h1         1 UJP       0.062700
     10 H2         -42.0960    54.4980    76.9190 h1         1 UJP       0.050200
     11 H3         -40.6860    55.3750    76.3380 h1         1 UJP       0.050200
     12 H4         -41.5930    57.2670    77.2730 hc         1 UJP       0.031200
     13 H5         -42.8100    56.3570    78.1450 hc         1 UJP       0.031200
     14 H6         -40.7270    57.6530    79.4280 hc         1 UJP       0.028700
     15 H7         -41.5740    56.2660    80.0860 hc         1 UJP       0.028700
@<TRIPOS>BOND
     1     1     2 1   
     2     1     6 1   
     3     1     7 1   
     4     2     5 1   
     5     2     8 1   
     6     2     9 1   
     7     3     4 1   
     8     3     8 1   
     9     3    10 1   
    10     3    11 1   
    11     4     5 1   
    12     4    12 1   
    13     4    13 1   
    14     5    14 1   
    15     5    15 1   
@<TRIPOS>SUBSTRUCTURE
     1 UJP         1 TEMP              0 ****  ****    0 ROOT
