@<TRIPOS>MOLECULE
UJP
   15    15     1     0     0
SMALL
No Charge or Current Charge


@<TRIPOS>ATOM
      1 C02        -38.4120    56.6700    78.7280 c          1 UJP       0.730000
      2 C04        -39.6290    55.7210    79.0590 c5         1 UJP      -0.017700
      3 C06        -41.5520    54.9400    77.3410 c5         1 UJP       0.090600
      4 C07        -41.5620    56.4500    77.6810 c5         1 UJP      -0.057400
      5 C08        -40.9900    56.4940    79.1280 c5         1 UJP      -0.048400
      6 O01        -38.5610    57.6550    78.0160 o          1 UJP      -0.723000
      7 O03        -37.3290    56.4190    79.2410 o          1 UJP      -0.723000
      8 S05        -39.8420    54.3580    77.7720 ss         1 UJP      -0.534000
      9 H1         -39.4120    55.2630    80.0330 h1         1 UJP       0.062700
     10 H2         -42.2880    54.3920    77.9460 h1         1 UJP       0.050200
     11 H3         -41.7710    54.7510    76.2810 h1         1 UJP       0.050200
     12 H4         -40.9490    57.0220    76.9760 hc         1 UJP       0.031200
     13 H5         -42.5750    56.8660    77.6320 hc         1 UJP       0.031200
     14 H6         -40.8700    57.5180    79.4990 hc         1 UJP       0.028700
     15 H7         -41.6770    55.9960    79.8230 hc         1 UJP       0.028700
@<TRIPOS>BOND
     1     1     2 1   
     2     1     6 1   
     3     1     7 1   
     4     2     5 1   
     5     2     8 1   
     6     2     9 1   
     7     3     4 1   
     8     3     8 1   
     9     3    10 1   
    10     3    11 1   
    11     4     5 1   
    12     4    12 1   
    13     4    13 1   
    14     5    14 1   
    15     5    15 1   
@<TRIPOS>SUBSTRUCTURE
     1 UJP         1 TEMP              0 ****  ****    0 ROOT
