@<TRIPOS>MOLECULE
UJQ
   26    28     1     0     0
SMALL
abcg2


@<TRIPOS>ATOM
      1 C10          1.2570    -0.4320    13.4200 ca         1 UJQ      -0.082000
      2 C13          1.0780     3.3020    13.4170 ca         1 UJQ      -0.060800
      3 C15          1.6450     5.6440    13.1660 ca         1 UJQ      -0.146500
      4 C17          0.0480     4.6390    11.6750 ca         1 UJQ      -0.141000
      5 C04          1.1760     1.9970    14.1410 c6         1 UJQ      -0.139100
      6 C05          0.8180     0.8720    13.2140 ca         1 UJQ      -0.060800
      7 C06         -0.0440     1.1110    12.1490 ca         1 UJQ       0.133600
      8 C07         -0.4740     0.0840    11.3180 ca         1 UJQ      -0.141000
      9 C08         -0.0380    -1.2100    11.5530 ca         1 UJQ      -0.117000
     10 C09          0.8380    -1.4700    12.6010 ca         1 UJQ      -0.146500
     11 C12          0.2160     3.4300    12.3350 ca         1 UJQ       0.133600
     12 C14          1.7980     4.4250    13.8100 ca         1 UJQ      -0.082000
     13 C16          0.7590     5.7510    12.1010 ca         1 UJQ      -0.117000
     14 O11         -0.4920     2.3650    11.8600 os         1 UJQ      -0.239200
     15 H1           1.9340    -0.6310    14.2420 ha         1 UJQ       0.114500
     16 H2           2.2110     6.5060    13.4940 ha         1 UJQ       0.094000
     17 H3          -0.6300     4.7050    10.8320 ha         1 UJQ       0.108000
     18 H4           2.1940     1.8510    14.5130 hc         1 UJQ       0.058700
     19 H5          -1.1430     0.3030    10.4950 ha         1 UJQ       0.108000
     20 H6          -0.3740    -2.0130    10.9090 ha         1 UJQ       0.091000
     21 H7           1.1890    -2.4780    12.7800 ha         1 UJQ       0.094000
     22 H8           2.4840     4.3380    14.6450 ha         1 UJQ       0.114500
     23 H9           0.6300     6.6960    11.5900 ha         1 UJQ       0.091000
     24 C02          0.1810     1.9220    15.3520 c          1 UJQ       0.736000
     25 O01          0.5390     1.1950    16.2930 o          1 UJQ      -0.702500
     26 O03         -0.8780     2.5570    15.2250 o          1 UJQ      -0.702500
@<TRIPOS>BOND
     1     1     6 ar  
     2     1    10 ar  
     3     1    15 1   
     4     2     5 1   
     5     2    11 ar  
     6     2    12 ar  
     7     3    12 ar  
     8     3    13 ar  
     9     3    16 1   
    10     4    11 ar  
    11     4    13 ar  
    12     4    17 1   
    13     5     6 1   
    14     5    18 1   
    15     5    24 1   
    16     6     7 ar  
    17     7     8 ar  
    18     7    14 1   
    19     8     9 ar  
    20     8    19 1   
    21     9    10 ar  
    22     9    20 1   
    23    10    21 1   
    24    11    14 1   
    25    12    22 1   
    26    13    23 1   
    27    24    25 1   
    28    24    26 1   
@<TRIPOS>SUBSTRUCTURE
     1 UJQ         1 TEMP              0 ****  ****    0 ROOT
