@<TRIPOS>MOLECULE
UJQ
   26    28     1     0     0
SMALL
No Charge or Current Charge


@<TRIPOS>ATOM
      1 C10          1.0570    -0.5170    13.4980 ca         1 UJQ      -0.082000
      2 C13          1.0760     3.3350    13.3580 ca         1 UJQ      -0.060800
      3 C15          1.4710     5.7440    13.3420 ca         1 UJQ      -0.146500
      4 C17          0.1370     4.7250    11.5830 ca         1 UJQ      -0.141000
      5 C04          1.2620     1.9680    14.0210 c6         1 UJQ      -0.139100
      6 C05          0.7760     0.8160    13.1370 ca         1 UJQ      -0.060800
      7 C06          0.0350     1.0740    11.9630 ca         1 UJQ       0.133600
      8 C07         -0.4240     0.0090    11.1690 ca         1 UJQ      -0.141000
      9 C08         -0.1440    -1.3180    11.5360 ca         1 UJQ      -0.117000
     10 C09          0.5990    -1.5790    12.6990 ca         1 UJQ      -0.146500
     11 C12          0.3200     3.4630    12.1730 ca         1 UJQ       0.133600
     12 C14          1.6530     4.4830    13.9360 ca         1 UJQ      -0.082000
     13 C16          0.7120     5.8670    12.1660 ca         1 UJQ      -0.117000
     14 O11         -0.2410     2.3620    11.5640 os         1 UJQ      -0.239200
     15 H1           1.6290    -0.7290    14.3990 ha         1 UJQ       0.114500
     16 H2           1.9180     6.6270    13.7940 ha         1 UJQ       0.094000
     17 H3          -0.4460     4.8160    10.6700 ha         1 UJQ       0.108000
     18 H4           2.3330     1.8230    14.2150 hc         1 UJQ       0.058700
     19 H5          -0.9940     0.2140    10.2660 ha         1 UJQ       0.108000
     20 H6          -0.4980    -2.1410    10.9190 ha         1 UJQ       0.091000
     21 H7           0.8180    -2.6060    12.9840 ha         1 UJQ       0.094000
     22 H8           2.2390     4.3990    14.8490 ha         1 UJQ       0.114500
     23 H9           0.5710     6.8430    11.7070 ha         1 UJQ       0.091000
     24 C02          0.5330     1.9350    15.3870 c          1 UJQ       0.736000
     25 O01          1.2110     1.7660    16.3910 o          1 UJQ      -0.702500
     26 O03         -0.6820     2.0780    15.4040 o          1 UJQ      -0.702500
@<TRIPOS>BOND
     1     1     6 ar  
     2     1    10 ar  
     3     1    15 1   
     4     2     5 1   
     5     2    11 ar  
     6     2    12 ar  
     7     3    12 ar  
     8     3    13 ar  
     9     3    16 1   
    10     4    11 ar  
    11     4    13 ar  
    12     4    17 1   
    13     5     6 1   
    14     5    18 1   
    15     5    24 1   
    16     6     7 ar  
    17     7     8 ar  
    18     7    14 1   
    19     8     9 ar  
    20     8    19 1   
    21     9    10 ar  
    22     9    20 1   
    23    10    21 1   
    24    11    14 1   
    25    12    22 1   
    26    13    23 1   
    27    24    25 1   
    28    24    26 1   
@<TRIPOS>SUBSTRUCTURE
     1 UJQ         1 TEMP              0 ****  ****    0 ROOT
