@<TRIPOS>MOLECULE
UJR
   21    21     1     0     0
SMALL
No Charge or Current Charge


@<TRIPOS>ATOM
      1 N1          87.6660    66.6710   -21.2330 nb         1 UJR      -0.181500
      2 N2          89.2270    66.1770   -19.4700 nb         1 UJR      -0.181500
      3 C5          88.2150    65.7090   -18.7090 ca         1 UJR       0.155400
      4 C4          86.8900    65.7000   -19.1760 ca         1 UJR       0.057000
      5 C3          86.6580    66.2010   -20.4680 ca         1 UJR       0.155400
      6 C2          88.9080    66.6340   -20.7000 ca         1 UJR       0.231300
      7 C           89.1900    64.8880   -25.0270 c          1 UJR       0.568900
      8 CA          89.8070    65.2440   -23.6290 c3         1 UJR       0.053500
      9 N           91.1690    64.6640   -23.3270 n8         1 UJR      -0.999200
     10 CB          89.8110    66.7830   -23.4310 c3         1 UJR       0.046600
     11 S           90.2590    67.2630   -21.6910 ss         1 UJR      -0.275300
     12 I           85.2660    64.9460   -17.9490 i          1 UJR      -0.268000
     13 H1          88.4720    65.3380   -17.7180 h4         1 UJR       0.040100
     14 H4          85.6570    66.2280   -20.8970 h4         1 UJR       0.040100
     15 HA          89.1070    64.8230   -22.8950 h1         1 UJR       0.049700
     16 H           91.4330    64.9060   -22.3640 hn         1 UJR       0.415500
     17 H2          91.1160    63.6360   -23.3160 hn         1 UJR       0.415500
     18 H8          90.5370    67.2370   -24.1190 h1         1 UJR       0.092200
     19 H9          88.8220    67.1980   -23.6690 h1         1 UJR       0.092200
     20 H3          88.1790    65.3120   -25.2150 h4         1 UJR      -0.005800
     21 O           89.7450    64.1920   -25.8750 o          1 UJR      -0.501100
@<TRIPOS>BOND
     1     1     5 ar  
     2     1     6 ar  
     3     2     3 ar  
     4     2     6 ar  
     5     3     4 ar  
     6     3    13 1   
     7     4     5 ar  
     8     4    12 1   
     9     5    14 1   
    10     6    11 1   
    11     7     8 1   
    12     7    20 1   
    13     7    21 2   
    14     8     9 1   
    15     8    10 1   
    16     8    15 1   
    17     9    16 1   
    18     9    17 1   
    19    10    11 1   
    20    10    18 1   
    21    10    19 1   
@<TRIPOS>SUBSTRUCTURE
     1 UJR         1 TEMP              0 ****  ****    0 ROOT
