@<TRIPOS>MOLECULE
UJR
   21    21     1     0     0
SMALL
abcg2


@<TRIPOS>ATOM
      1 N1          87.7940    66.0940   -21.2320 nb         1 UJR      -0.181500
      2 N2          89.0850    66.5250   -19.2820 nb         1 UJR      -0.181500
      3 C5          88.0450    66.1990   -18.5220 ca         1 UJR       0.155400
      4 C4          86.8330    65.8030   -19.0800 ca         1 UJR       0.057000
      5 C3          86.7540    65.7650   -20.4650 ca         1 UJR       0.155400
      6 C2          88.9110    66.4580   -20.6070 ca         1 UJR       0.231300
      7 C           89.2510    65.1080   -25.0760 c          1 UJR       0.568900
      8 CA          89.8280    65.2040   -23.6860 c3         1 UJR       0.053500
      9 N           91.1650    64.6390   -23.6250 n8         1 UJR      -0.999200
     10 CB          89.8130    66.6720   -23.2460 c3         1 UJR       0.046600
     11 S           90.3390    66.9260   -21.5260 ss         1 UJR      -0.275300
     12 I           85.1970    65.2800   -17.8740 i          1 UJR      -0.268000
     13 H1          88.1810    66.2540   -17.4480 h4         1 UJR       0.040100
     14 H4          85.8440    65.4650   -20.9730 h4         1 UJR       0.040100
     15 HA          89.0910    64.6700   -23.0630 h1         1 UJR       0.049700
     16 H           91.4160    64.4530   -22.6610 hn         1 UJR       0.415500
     17 H2          91.1860    63.7530   -24.1180 hn         1 UJR       0.415500
     18 H8          90.5330    67.2430   -23.8320 h1         1 UJR       0.092200
     19 H9          88.8240    67.1100   -23.3670 h1         1 UJR       0.092200
     20 H3          88.2790    65.6190   -25.2040 h4         1 UJR      -0.005800
     21 O           89.7650    64.5080   -25.9910 o          1 UJR      -0.501100
@<TRIPOS>BOND
     1     1     5 ar  
     2     1     6 ar  
     3     2     3 ar  
     4     2     6 ar  
     5     3     4 ar  
     6     3    13 1   
     7     4     5 ar  
     8     4    12 1   
     9     5    14 1   
    10     6    11 1   
    11     7     8 1   
    12     7    20 1   
    13     7    21 2   
    14     8     9 1   
    15     8    10 1   
    16     8    15 1   
    17     9    16 1   
    18     9    17 1   
    19    10    11 1   
    20    10    18 1   
    21    10    19 1   
@<TRIPOS>SUBSTRUCTURE
     1 UJR         1 TEMP              0 ****  ****    0 ROOT
