@<TRIPOS>MOLECULE
UJS
   45    49     1     0     0
SMALL
abcg2


@<TRIPOS>ATOM
      1 C01        -29.7570   -24.2050     8.6130 ca         1 UJS      -0.207600
      2 C02        -30.3380   -25.4090     9.0370 ca         1 UJS       0.207100
      3 C03        -30.4300   -25.6900    10.4030 ca         1 UJS      -0.222000
      4 C04        -29.9490   -24.7870    11.3280 ca         1 UJS       0.012000
      5 C05        -29.3220   -23.6050    10.9160 ca         1 UJS      -0.209600
      6 C06        -29.2260   -23.3310     9.5530 ca         1 UJS       0.016000
      7 C07        -29.6250   -23.8510     7.1710 c          1 UJS       0.644700
      8 C08        -28.8750   -22.6490    11.9480 c          1 UJS       0.636700
      9 O09        -29.4820   -22.4680    12.9850 o          1 UJS      -0.517100
     10 N10        -27.6920   -21.9160    11.6940 n          1 UJS      -0.147200
     11 O11        -28.5520   -23.6400     6.6500 o          1 UJS      -0.511100
     12 N12        -30.8140   -23.7320     6.4330 n          1 UJS      -0.137200
     13 C13        -32.0960   -23.6690     6.9600 cc         1 UJS      -0.156900
     14 C14        -32.9630   -23.4940     5.9050 ca         1 UJS      -0.090000
     15 C15        -32.1650   -23.4540     4.6880 ca         1 UJS      -0.090000
     16 C16        -30.8440   -23.5970     5.0540 cc         1 UJS      -0.156900
     17 C17        -26.6540   -22.2910    10.8530 cc         1 UJS      -0.166400
     18 C18        -25.6660   -21.3350    10.9720 ca         1 UJS      -0.088000
     19 C19        -26.1370   -20.3410    11.9220 ca         1 UJS      -0.088000
     20 C20        -27.3840   -20.7420    12.3550 cc         1 UJS      -0.166400
     21 C21        -34.3780   -23.3600     5.8280 ca         1 UJS      -0.074000
     22 C22        -34.9530   -23.2010     4.6010 ca         1 UJS      -0.115000
     23 C23        -34.1670   -23.1650     3.4010 ca         1 UJS      -0.115000
     24 C24        -32.8090   -23.2880     3.4290 ca         1 UJS      -0.074000
     25 C25        -24.3840   -21.1890    10.3730 ca         1 UJS      -0.074000
     26 C26        -23.6280   -20.1020    10.7030 ca         1 UJS      -0.114000
     27 C27        -24.0960   -19.1160    11.6320 ca         1 UJS      -0.114000
     28 C28        -25.3170   -19.2200    12.2320 ca         1 UJS      -0.074000
     29 O29        -30.7690   -26.2690     8.0920 oh         1 UJS      -0.514100
     30 H1         -30.8790   -26.6230    10.7220 ha         1 UJS       0.131000
     31 H2         -30.0380   -24.9990    12.3850 ha         1 UJS       0.140000
     32 H3         -28.7760   -22.4100     9.2090 ha         1 UJS       0.148000
     33 H4         -32.2690   -23.7320     8.0190 h4         1 UJS       0.229000
     34 H5         -29.9360   -23.6230     4.4810 h4         1 UJS       0.229000
     35 H6         -26.6870   -23.2080    10.2960 h4         1 UJS       0.231500
     36 H7         -28.0800   -20.3030    13.0470 h4         1 UJS       0.231500
     37 H8         -34.9780   -23.3860     6.7290 ha         1 UJS       0.112000
     38 H9         -36.0280   -23.0990     4.5190 ha         1 UJS       0.108500
     39 H10        -34.6760   -23.0350     2.4540 ha         1 UJS       0.108500
     40 H11        -32.2250   -23.2570     2.5180 ha         1 UJS       0.112000
     41 H12        -24.0240   -21.9290     9.6690 ha         1 UJS       0.113500
     42 H13        -22.6500   -19.9710    10.2570 ha         1 UJS       0.109000
     43 H14        -23.4550   -18.2730    11.8570 ha         1 UJS       0.109000
     44 H15        -25.6600   -18.4700    12.9350 ha         1 UJS       0.113500
     45 H16        -31.1640   -27.0550     8.4970 ho         1 UJS       0.481000
@<TRIPOS>BOND
     1     1     2 ar  
     2     1     6 ar  
     3     1     7 1   
     4     2     3 ar  
     5     2    29 1   
     6     3     4 ar  
     7     3    30 1   
     8     4     5 ar  
     9     4    31 1   
    10     5     6 ar  
    11     5     8 1   
    12     6    32 1   
    13     7    11 2   
    14     7    12 1   
    15     8     9 2   
    16     8    10 1   
    17    10    17 1   
    18    10    20 1   
    19    12    13 1   
    20    12    16 1   
    21    13    14 2   
    22    13    33 1   
    23    14    15 ar  
    24    14    21 ar  
    25    15    16 2   
    26    15    24 ar  
    27    16    34 1   
    28    17    18 2   
    29    17    35 1   
    30    18    19 ar  
    31    18    25 ar  
    32    19    20 2   
    33    19    28 ar  
    34    20    36 1   
    35    21    22 ar  
    36    21    37 1   
    37    22    23 ar  
    38    22    38 1   
    39    23    24 ar  
    40    23    39 1   
    41    24    40 1   
    42    25    26 ar  
    43    25    41 1   
    44    26    27 ar  
    45    26    42 1   
    46    27    28 ar  
    47    27    43 1   
    48    28    44 1   
    49    29    45 1   
@<TRIPOS>SUBSTRUCTURE
     1 UJS         1 TEMP              0 ****  ****    0 ROOT
