@<TRIPOS>MOLECULE
UJS
   45    49     1     0     0
SMALL
No Charge or Current Charge


@<TRIPOS>ATOM
      1 C01        -29.8360   -24.0920     8.7210 ca         1 UJS      -0.207600
      2 C02        -30.5070   -25.2790     9.0750 ca         1 UJS       0.207100
      3 C03        -30.5990   -25.6580    10.4210 ca         1 UJS      -0.222000
      4 C04        -30.0020   -24.8770    11.4240 ca         1 UJS       0.012000
      5 C05        -29.2760   -23.7190    11.0840 ca         1 UJS      -0.209600
      6 C06        -29.2080   -23.3290     9.7270 ca         1 UJS       0.016000
      7 C07        -29.7150   -23.6230     7.2940 c          1 UJS       0.644700
      8 C08        -28.6390   -22.9000    12.1870 c          1 UJS       0.636700
      9 O09        -29.1540   -22.8550    13.3000 o          1 UJS      -0.517100
     10 N10        -27.5330   -22.0680    11.8630 n          1 UJS      -0.147200
     11 O11        -28.6140   -23.3200     6.8430 o          1 UJS      -0.511100
     12 N12        -30.8730   -23.6130     6.4680 n          1 UJS      -0.137200
     13 C13        -32.2050   -23.5550     6.9170 cc         1 UJS      -0.156900
     14 C14        -33.0420   -23.4710     5.7390 ca         1 UJS      -0.090000
     15 C15        -32.2280   -23.4620     4.6250 ca         1 UJS      -0.090000
     16 C16        -30.8510   -23.5400     5.0650 cc         1 UJS      -0.156900
     17 C17        -26.5220   -22.3670    10.9310 cc         1 UJS      -0.166400
     18 C18        -25.5650   -21.2840    10.9890 ca         1 UJS      -0.088000
     19 C19        -25.9810   -20.3840    11.9480 ca         1 UJS      -0.088000
     20 C20        -27.2160   -20.8700    12.5250 cc         1 UJS      -0.166400
     21 C21        -34.4360   -23.4010     5.6300 ca         1 UJS      -0.074000
     22 C22        -34.9950   -23.3220     4.3360 ca         1 UJS      -0.115000
     23 C23        -34.1590   -23.3120     3.1920 ca         1 UJS      -0.115000
     24 C24        -32.7550   -23.3820     3.3300 ca         1 UJS      -0.074000
     25 C25        -24.3860   -21.0860    10.2590 ca         1 UJS      -0.074000
     26 C26        -23.6280   -19.9260    10.5300 ca         1 UJS      -0.114000
     27 C27        -24.0560   -19.0020    11.5140 ca         1 UJS      -0.114000
     28 C28        -25.2470   -19.2270    12.2380 ca         1 UJS      -0.074000
     29 O29        -31.0340   -26.1000     8.1250 oh         1 UJS      -0.514100
     30 H1         -31.1230   -26.5680    10.7030 ha         1 UJS       0.131000
     31 H2         -30.0830   -25.1910    12.4640 ha         1 UJS       0.140000
     32 H3         -28.6980   -22.4080     9.4450 ha         1 UJS       0.148000
     33 H4         -32.3940   -23.5540     7.9850 h4         1 UJS       0.229000
     34 H5         -29.8870   -23.5450     4.5650 h4         1 UJS       0.229000
     35 H6         -26.5690   -23.3110    10.3970 h4         1 UJS       0.231500
     36 H7         -27.8870   -20.5220    13.3050 h4         1 UJS       0.231500
     37 H8         -35.0690   -23.4080     6.5150 ha         1 UJS       0.112000
     38 H9         -36.0740   -23.2660     4.2170 ha         1 UJS       0.108500
     39 H10        -34.6010   -23.2500     2.2000 ha         1 UJS       0.108500
     40 H11        -32.1050   -23.3740     2.4590 ha         1 UJS       0.112000
     41 H12        -24.0650   -21.8040     9.5070 ha         1 UJS       0.113500
     42 H13        -22.7080   -19.7430     9.9790 ha         1 UJS       0.109000
     43 H14        -23.4630   -18.1120    11.7140 ha         1 UJS       0.109000
     44 H15        -25.5840   -18.5250    12.9970 ha         1 UJS       0.113500
     45 H16        -31.4250   -26.8800     8.5720 ho         1 UJS       0.481000
@<TRIPOS>BOND
     1     1     2 ar  
     2     1     6 ar  
     3     1     7 1   
     4     2     3 ar  
     5     2    29 1   
     6     3     4 ar  
     7     3    30 1   
     8     4     5 ar  
     9     4    31 1   
    10     5     6 ar  
    11     5     8 1   
    12     6    32 1   
    13     7    11 2   
    14     7    12 1   
    15     8     9 2   
    16     8    10 1   
    17    10    17 1   
    18    10    20 1   
    19    12    13 1   
    20    12    16 1   
    21    13    14 2   
    22    13    33 1   
    23    14    15 ar  
    24    14    21 ar  
    25    15    16 2   
    26    15    24 ar  
    27    16    34 1   
    28    17    18 2   
    29    17    35 1   
    30    18    19 ar  
    31    18    25 ar  
    32    19    20 2   
    33    19    28 ar  
    34    20    36 1   
    35    21    22 ar  
    36    21    37 1   
    37    22    23 ar  
    38    22    38 1   
    39    23    24 ar  
    40    23    39 1   
    41    24    40 1   
    42    25    26 ar  
    43    25    41 1   
    44    26    27 ar  
    45    26    42 1   
    46    27    28 ar  
    47    27    43 1   
    48    28    44 1   
    49    29    45 1   
@<TRIPOS>SUBSTRUCTURE
     1 UJS         1 TEMP              0 ****  ****    0 ROOT
