@<TRIPOS>MOLECULE
UJU
   45    47     1     0     0
SMALL
No Charge or Current Charge


@<TRIPOS>ATOM
      1 C1         104.6250    82.8170   117.4060 c3         1 UJU      -0.089100
      2 C2         103.9430    81.4760   117.0840 c3         1 UJU      -0.014100
      3 C3         104.9030    80.4590   116.5170 cc         1 UJU      -0.148300
      4 C4         106.2560    79.1440   115.2790 cd         1 UJU       0.181500
      5 C5         107.0370    78.4990   114.1490 c          1 UJU       0.541600
      6 C7         108.3770    77.8790   111.3560 ca         1 UJU      -0.150000
      7 C8         108.8490    77.6790   110.0470 ca         1 UJU      -0.067500
      8 C9         108.3130    78.4140   108.9720 ca         1 UJU      -0.108300
      9 C10        108.8300    78.2010   107.5440 c6         1 UJU       0.187600
     10 C11        110.3460    78.5820   107.3780 c6         1 UJU       0.123800
     11 C12        110.5230    76.8870   105.5830 c6         1 UJU       0.113800
     12 C13        109.0190    76.5220   105.8180 c6         1 UJU       0.114600
     13 C14        107.2960    79.3530   109.2250 ca         1 UJU      -0.067500
     14 C15        106.8250    79.5530   110.5340 ca         1 UJU      -0.150000
     15 C16        105.3550    80.2660   115.2370 cd         1 UJU      -0.167300
     16 C17        104.9570    81.1070   114.0410 c3         1 UJU      -0.016800
     17 C6         107.3550    78.8190   111.6120 ca         1 UJU      -0.012000
     18 N1         105.5350    79.4740   117.2610 na         1 UJU       0.011800
     19 N2         106.3630    78.6650   116.5160 nc         1 UJU      -0.451800
     20 N3         106.8270    79.0840   112.9050 ns         1 UJU      -0.149000
     21 N4         111.1720    77.4800   106.7910 n7         1 UJU      -0.842400
     22 O1         107.7850    77.5370   114.3170 o          1 UJU      -0.554100
     23 O2         108.6090    76.8170   107.1760 os         1 UJU      -0.449000
     24 H1         103.8980    83.5280   117.8170 hc         1 UJU       0.041033
     25 H2         105.4240    82.6770   118.1440 hc         1 UJU       0.041033
     26 H3         105.0630    83.2560   116.5020 hc         1 UJU       0.041033
     27 H4         103.1190    81.6490   116.3810 hc         1 UJU       0.054700
     28 H5         103.4820    81.0840   117.9990 hc         1 UJU       0.054700
     29 H6         108.8250    77.2960   112.1540 ha         1 UJU       0.126000
     30 H7         109.6340    76.9480   109.8660 ha         1 UJU       0.117500
     31 H8         108.2410    78.8290   106.8580 h1         1 UJU       0.041700
     32 H9         110.7680    78.8750   108.3510 h1         1 UJU       0.057700
     33 H10        110.4100    79.4680   106.7290 h1         1 UJU       0.057700
     34 H11        110.5840    77.6020   104.7490 h1         1 UJU       0.058700
     35 H12        111.0740    75.9870   105.2720 h1         1 UJU       0.058700
     36 H13        108.3850    77.0860   105.1190 h1         1 UJU       0.048200
     37 H14        108.8620    75.4510   105.6250 h1         1 UJU       0.048200
     38 H15        106.8690    79.9310   108.4080 ha         1 UJU       0.117500
     39 H16        106.0380    80.2840   110.7080 ha         1 UJU       0.126000
     40 H17        104.4410    80.5030   113.2850 hc         1 UJU       0.042700
     41 H18        104.2760    81.9190   114.3210 hc         1 UJU       0.042700
     42 H19        105.8320    81.5760   113.5750 hc         1 UJU       0.042700
     43 H20        105.4280    79.3260   118.2640 hn         1 UJU       0.376000
     44 H21        106.1700    79.8510   112.9180 hn         1 UJU       0.155000
     45 H22        111.2110    76.7340   107.4980 hn         1 UJU       0.414000
@<TRIPOS>BOND
     1     1     2 1   
     2     1    24 1   
     3     1    25 1   
     4     1    26 1   
     5     2     3 1   
     6     2    27 1   
     7     2    28 1   
     8     3    15 2   
     9     3    18 1   
    10     4     5 1   
    11     4    15 1   
    12     4    19 2   
    13     5    20 1   
    14     5    22 2   
    15     6     7 ar  
    16     6    17 ar  
    17     6    29 1   
    18     7     8 ar  
    19     7    30 1   
    20     8     9 1   
    21     8    13 ar  
    22     9    10 1   
    23     9    23 1   
    24     9    31 1   
    25    10    21 1   
    26    10    32 1   
    27    10    33 1   
    28    11    12 1   
    29    11    21 1   
    30    11    34 1   
    31    11    35 1   
    32    12    23 1   
    33    12    36 1   
    34    12    37 1   
    35    13    14 ar  
    36    13    38 1   
    37    14    17 ar  
    38    14    39 1   
    39    15    16 1   
    40    16    40 1   
    41    16    41 1   
    42    16    42 1   
    43    17    20 1   
    44    18    19 1   
    45    18    43 1   
    46    20    44 1   
    47    21    45 1   
@<TRIPOS>SUBSTRUCTURE
     1 UJU         1 TEMP              0 ****  ****    0 ROOT
