@<TRIPOS>MOLECULE
UJU
   45    47     1     0     0
SMALL
abcg2


@<TRIPOS>ATOM
      1 C1         105.1800    82.4700   117.9000 c3         1 UJU      -0.089100
      2 C2         104.1490    81.7060   117.0700 c3         1 UJU      -0.014100
      3 C3         104.7540    80.5760   116.3120 cc         1 UJU      -0.148300
      4 C4         105.8000    79.1920   114.9550 cd         1 UJU       0.181500
      5 C5         106.5590    78.5100   113.8800 c          1 UJU       0.541600
      6 C7         108.2410    77.9860   111.3820 ca         1 UJU      -0.150000
      7 C8         108.7940    77.6850   110.1470 ca         1 UJU      -0.067500
      8 C9         108.1850    78.0780   108.9580 ca         1 UJU      -0.108300
      9 C10        108.8180    77.8040   107.6250 c6         1 UJU       0.187600
     10 C11        109.9510    78.8120   107.3230 c6         1 UJU       0.123800
     11 C12        110.3800    77.2790   105.5380 c6         1 UJU       0.113800
     12 C13        109.7750    76.1030   106.3200 c6         1 UJU       0.114600
     13 C14        106.9970    78.7940   109.0420 ca         1 UJU      -0.067500
     14 C15        106.4350    79.1070   110.2680 ca         1 UJU      -0.150000
     15 C16        105.3820    80.5390   115.0830 cd         1 UJU      -0.167300
     16 C17        105.5880    81.7000   114.1660 c3         1 UJU      -0.016800
     17 C6         107.0460    78.7040   111.4550 ca         1 UJU      -0.012000
     18 N1         104.8330    79.3230   116.8050 na         1 UJU       0.011800
     19 N2         105.4590    78.4760   116.0170 nc         1 UJU      -0.451800
     20 N3         106.4360    79.0870   112.6550 ns         1 UJU      -0.149000
     21 N4         110.9600    78.2670   106.4250 n7         1 UJU      -0.842400
     22 O1         107.2270    77.5160   114.1000 o          1 UJU      -0.554100
     23 O2         109.3470    76.4980   107.6120 os         1 UJU      -0.449000
     24 H1         104.7080    83.2960   118.4320 hc         1 UJU       0.041033
     25 H2         105.6500    81.8200   118.6390 hc         1 UJU       0.041033
     26 H3         105.9660    82.8820   117.2670 hc         1 UJU       0.041033
     27 H4         103.6640    82.3850   116.3670 hc         1 UJU       0.054700
     28 H5         103.3580    81.3260   117.7210 hc         1 UJU       0.054700
     29 H6         108.7520    77.6670   112.2760 ha         1 UJU       0.126000
     30 H7         109.7270    77.1360   110.1230 ha         1 UJU       0.117500
     31 H8         108.0400    77.9010   106.8530 h1         1 UJU       0.041700
     32 H9         110.4430    79.1170   108.2490 h1         1 UJU       0.057700
     33 H10        109.5030    79.7140   106.8910 h1         1 UJU       0.057700
     34 H11        109.6170    77.7710   104.9280 h1         1 UJU       0.058700
     35 H12        111.1370    76.9080   104.8460 h1         1 UJU       0.058700
     36 H13        108.9460    75.6560   105.7550 h1         1 UJU       0.048200
     37 H14        110.5260    75.3250   106.4740 h1         1 UJU       0.048200
     38 H15        106.4930    79.1120   108.1370 ha         1 UJU       0.117500
     39 H16        105.5050    79.6630   110.3030 ha         1 UJU       0.126000
     40 H17        104.9280    81.6700   113.2960 hc         1 UJU       0.042700
     41 H18        105.3860    82.6390   114.6790 hc         1 UJU       0.042700
     42 H19        106.6130    81.7470   113.7970 hc         1 UJU       0.042700
     43 H20        104.4610    79.0010   117.6870 hn         1 UJU       0.376000
     44 H21        105.7240    79.7940   112.5570 hn         1 UJU       0.155000
     45 H22        111.6920    77.8310   106.9720 hn         1 UJU       0.414000
@<TRIPOS>BOND
     1     1     2 1   
     2     1    24 1   
     3     1    25 1   
     4     1    26 1   
     5     2     3 1   
     6     2    27 1   
     7     2    28 1   
     8     3    15 2   
     9     3    18 1   
    10     4     5 1   
    11     4    15 1   
    12     4    19 2   
    13     5    20 1   
    14     5    22 2   
    15     6     7 ar  
    16     6    17 ar  
    17     6    29 1   
    18     7     8 ar  
    19     7    30 1   
    20     8     9 1   
    21     8    13 ar  
    22     9    10 1   
    23     9    23 1   
    24     9    31 1   
    25    10    21 1   
    26    10    32 1   
    27    10    33 1   
    28    11    12 1   
    29    11    21 1   
    30    11    34 1   
    31    11    35 1   
    32    12    23 1   
    33    12    36 1   
    34    12    37 1   
    35    13    14 ar  
    36    13    38 1   
    37    14    17 ar  
    38    14    39 1   
    39    15    16 1   
    40    16    40 1   
    41    16    41 1   
    42    16    42 1   
    43    17    20 1   
    44    18    19 1   
    45    18    43 1   
    46    20    44 1   
    47    21    45 1   
@<TRIPOS>SUBSTRUCTURE
     1 UJU         1 TEMP              0 ****  ****    0 ROOT
