@<TRIPOS>MOLECULE
UJV
   49    53     1     0     0
SMALL
abcg2


@<TRIPOS>ATOM
      1 C17         45.0290   101.0830   213.7260 cc         1 UJV      -0.154400
      2 C20         46.7840   104.2660   212.8980 ca         1 UJV      -0.100000
      3 C22         48.2330   100.1790   219.9140 cc         1 UJV      -0.136400
      4 C24         48.9770    99.0660   218.0750 ca         1 UJV      -0.038000
      5 C26         50.7030   100.3690   219.2640 ca         1 UJV      -0.036000
      6 C02         43.5620    98.7710   219.5060 ca         1 UJV       0.252100
      7 C03         42.4790    98.5300   218.6510 ca         1 UJV      -0.183000
      8 C05         43.6950    99.4990   216.8050 ca         1 UJV      -0.231600
      9 C14         44.6740   102.0900   215.7210 cc         1 UJV      -0.160400
     10 C18         45.8500   104.2830   215.1200 ca         1 UJV       0.201000
     11 C19         46.5370   104.9240   214.1470 ca         1 UJV      -0.158000
     12 C23         49.3550    99.9380   219.1560 ca         1 UJV      -0.120000
     13 C25         47.6300    98.8250   218.1990 cc         1 UJV      -0.203400
     14 C27         51.6120    99.9350   218.3520 ca         1 UJV      -0.172000
     15 C01         44.7590    99.2960   218.9700 ca         1 UJV      -0.296600
     16 C04         42.5530    98.8720   217.3240 ca         1 UJV       0.019000
     17 C06         44.7880    99.6910   217.6320 ca         1 UJV       0.029000
     18 O07         43.4030    98.4700   220.7840 oh         1 UJV      -0.518100
     19 O09         45.7760    99.6000   221.0690 o          1 UJV      -0.560100
     20 N10         47.1940    99.5160   219.3150 n          1 UJV      -0.135200
     21 N13         44.4810   100.9530   214.9760 n          1 UJV      -0.137200
     22 C15         45.3740   102.9660   214.9280 ca         1 UJV      -0.122000
     23 C16         45.6150   102.3250   213.6610 ca         1 UJV      -0.083000
     24 C21         46.3440   103.0050   212.6450 ca         1 UJV      -0.080000
     25 C28         51.2370    99.0510   217.2800 ca         1 UJV       0.138100
     26 C29         49.9480    98.6230   217.1390 ca         1 UJV      -0.141000
     27 F30         45.5960   104.8720   216.2960 f          1 UJV      -0.181000
     28 O31         52.1350    98.6080   216.3730 os         1 UJV      -0.348100
     29 C32         53.4760    99.0460   216.4420 c3         1 UJV       0.153900
     30 H1          44.9830   100.2850   213.0040 h4         1 UJV       0.237000
     31 H2          47.3390   104.8070   212.1430 ha         1 UJV       0.113000
     32 H4          51.0070   101.0320   220.0640 ha         1 UJV       0.115000
     33 H5          41.5780    98.0910   219.0570 ha         1 UJV       0.147000
     34 H6          44.2630   102.2050   216.7100 h4         1 UJV       0.232000
     35 H7          46.9000   105.9310   214.3060 ha         1 UJV       0.127000
     36 H8          46.9770    98.1750   217.6420 h4         1 UJV       0.228000
     37 H9          52.6370   100.2660   218.4460 ha         1 UJV       0.114000
     38 H10         41.7030    98.6840   216.6820 ha         1 UJV       0.140000
     39 H11         45.6870   100.1480   217.2400 ha         1 UJV       0.148000
     40 H12         44.1660    98.7970   221.2970 ho         1 UJV       0.515000
     41 H13         46.5370   102.5270   211.6940 ha         1 UJV       0.118000
     42 H14         49.6750    97.9630   216.3240 ha         1 UJV       0.129000
     43 H15         53.9940    98.5730   215.6100 h1         1 UJV       0.038367
     44 H16         53.5650   100.1300   216.3340 h1         1 UJV       0.038367
     45 H17         53.9650    98.7420   217.3710 h1         1 UJV       0.038367
     46 C11         43.7300    99.8210   215.3680 c          1 UJV       0.639700
     47 C08         45.9080    99.4800   219.8660 c          1 UJV       0.650700
     48 O12         43.1700    99.1610   214.5310 o          1 UJV      -0.504100
     49 H3          48.0890   100.7850   220.7920 h4         1 UJV       0.236000
@<TRIPOS>BOND
     1     1    21 1   
     2     1    23 2   
     3     1    30 1   
     4     2    11 ar  
     5     2    24 ar  
     6     2    31 1   
     7     3    12 2   
     8     3    20 1   
     9     3    49 1   
    10     4    12 ar  
    11     4    13 2   
    12     4    26 ar  
    13     5    12 ar  
    14     5    14 ar  
    15     5    32 1   
    16     6     7 ar  
    17     6    15 ar  
    18     6    18 1   
    19     7    16 ar  
    20     7    33 1   
    21     8    16 ar  
    22     8    17 ar  
    23     8    46 1   
    24     9    21 1   
    25     9    22 2   
    26     9    34 1   
    27    10    11 ar  
    28    10    22 ar  
    29    10    27 1   
    30    11    35 1   
    31    13    20 1   
    32    13    36 1   
    33    14    25 ar  
    34    14    37 1   
    35    15    17 ar  
    36    15    47 1   
    37    16    38 1   
    38    17    39 1   
    39    18    40 1   
    40    19    47 2   
    41    20    47 1   
    42    21    46 1   
    43    22    23 ar  
    44    23    24 ar  
    45    24    41 1   
    46    25    26 ar  
    47    25    28 1   
    48    26    42 1   
    49    28    29 1   
    50    29    43 1   
    51    29    44 1   
    52    29    45 1   
    53    46    48 2   
@<TRIPOS>SUBSTRUCTURE
     1 UJV         1 TEMP              0 ****  ****    0 ROOT
