@<TRIPOS>MOLECULE
UJV
   49    53     1     0     0
SMALL
No Charge or Current Charge


@<TRIPOS>ATOM
      1 C17         44.7930   101.1800   213.5400 cc         1 UJV      -0.154400
      2 C20         46.5210   104.4780   212.7310 ca         1 UJV      -0.100000
      3 C22         48.3400   100.1610   220.0650 cc         1 UJV      -0.136400
      4 C24         49.1130    99.1480   218.1620 ca         1 UJV      -0.038000
      5 C26         50.8550   100.1860   219.4900 ca         1 UJV      -0.036000
      6 C02         43.5770    98.7460   219.4880 ca         1 UJV       0.252100
      7 C03         42.5080    98.4220   218.6450 ca         1 UJV      -0.183000
      8 C05         43.6690    99.4210   216.7530 ca         1 UJV      -0.231600
      9 C14         44.6220   102.0840   215.6410 cc         1 UJV      -0.160400
     10 C18         45.7990   104.3150   215.0670 ca         1 UJV       0.201000
     11 C19         46.4170   105.0400   214.0280 ca         1 UJV      -0.158000
     12 C23         49.5110    99.8630   219.2690 ca         1 UJV      -0.120000
     13 C25         47.6800    98.9690   218.2230 cc         1 UJV      -0.203400
     14 C27         51.8050    99.7560   218.5380 ca         1 UJV      -0.172000
     15 C01         44.7370    99.3540   218.9680 ca         1 UJV      -0.296600
     16 C04         42.5560    98.7390   217.2800 ca         1 UJV       0.019000
     17 C06         44.7620    99.7130   217.6000 ca         1 UJV       0.029000
     18 O07         43.4750    98.4490   220.8120 oh         1 UJV      -0.518100
     19 O09         45.6690   100.0010   221.0440 o          1 UJV      -0.560100
     20 N10         47.2310    99.6290   219.3850 n          1 UJV      -0.135200
     21 N13         44.3430   100.9510   214.8520 n          1 UJV      -0.137200
     22 C15         45.2980   103.0370   214.7850 ca         1 UJV      -0.122000
     23 C16         45.3990   102.4930   213.5210 ca         1 UJV      -0.083000
     24 C21         46.0080   103.1890   212.4680 ca         1 UJV      -0.080000
     25 C28         51.3960    99.0150   217.3940 ca         1 UJV       0.138100
     26 C29         50.0330    98.7060   217.2050 ca         1 UJV      -0.141000
     27 F30         45.6930   104.8430   216.3080 f          1 UJV      -0.181000
     28 O31         52.2910    98.5730   216.4400 os         1 UJV      -0.348100
     29 C32         53.7030    98.8320   216.5340 c3         1 UJV       0.153900
     30 H1          44.6390   100.3990   212.8010 h4         1 UJV       0.237000
     31 H2          46.9990   105.0430   211.9330 ha         1 UJV       0.113000
     32 H4          51.1580   100.7500   220.3700 ha         1 UJV       0.115000
     33 H5          41.6310    97.9270   219.0540 ha         1 UJV       0.147000
     34 H6          44.2500   102.1190   216.6600 h4         1 UJV       0.232000
     35 H7          46.8120   106.0330   214.2260 ha         1 UJV       0.127000
     36 H8          46.9750    98.3760   217.6490 h4         1 UJV       0.228000
     37 H9          52.8490   100.0040   218.7040 ha         1 UJV       0.114000
     38 H10         41.7140    98.4800   216.6400 ha         1 UJV       0.140000
     39 H11         45.6350   100.2200   217.1910 ha         1 UJV       0.148000
     40 H12         44.1970    98.9440   221.2680 ho         1 UJV       0.515000
     41 H13         46.0810   102.7500   211.4760 ha         1 UJV       0.118000
     42 H14         49.7070    98.1390   216.3370 ha         1 UJV       0.129000
     43 H15         54.2280    98.3940   215.6760 h1         1 UJV       0.038367
     44 H16         53.9020    99.9110   216.5400 h1         1 UJV       0.038367
     45 H17         54.1200    98.3910   217.4490 h1         1 UJV       0.038367
     46 C11         43.6910    99.7600   215.2800 c          1 UJV       0.639700
     47 C08         45.8960    99.6750   219.8820 c          1 UJV       0.650700
     48 O12         43.2200    98.9740   214.4650 o          1 UJV      -0.504100
     49 H3          48.1650   100.6760   221.0050 h4         1 UJV       0.236000
@<TRIPOS>BOND
     1     1    21 1   
     2     1    23 2   
     3     1    30 1   
     4     2    11 ar  
     5     2    24 ar  
     6     2    31 1   
     7     3    12 2   
     8     3    20 1   
     9     3    49 1   
    10     4    12 ar  
    11     4    13 2   
    12     4    26 ar  
    13     5    12 ar  
    14     5    14 ar  
    15     5    32 1   
    16     6     7 ar  
    17     6    15 ar  
    18     6    18 1   
    19     7    16 ar  
    20     7    33 1   
    21     8    16 ar  
    22     8    17 ar  
    23     8    46 1   
    24     9    21 1   
    25     9    22 2   
    26     9    34 1   
    27    10    11 ar  
    28    10    22 ar  
    29    10    27 1   
    30    11    35 1   
    31    13    20 1   
    32    13    36 1   
    33    14    25 ar  
    34    14    37 1   
    35    15    17 ar  
    36    15    47 1   
    37    16    38 1   
    38    17    39 1   
    39    18    40 1   
    40    19    47 2   
    41    20    47 1   
    42    21    46 1   
    43    22    23 ar  
    44    23    24 ar  
    45    24    41 1   
    46    25    26 ar  
    47    25    28 1   
    48    26    42 1   
    49    28    29 1   
    50    29    43 1   
    51    29    44 1   
    52    29    45 1   
    53    46    48 2   
@<TRIPOS>SUBSTRUCTURE
     1 UJV         1 TEMP              0 ****  ****    0 ROOT
