@<TRIPOS>MOLECULE
UJW
   32    33     1     0     0
SMALL
abcg2


@<TRIPOS>ATOM
      1 C10        -20.7440   -23.7110    -8.6120 ca         1 UJW      -0.111500
      2 C13        -19.0350   -21.3150    -5.2720 c3         1 UJW      -0.017100
      3 C03        -20.2860   -17.9200    -6.8960 cc         1 UJW      -0.272900
      4 C04        -20.4350   -18.9010    -7.8360 cd         1 UJW      -0.062000
      5 C05        -20.0460   -20.1970    -7.3870 cd         1 UJW      -0.067000
      6 C06        -20.1420   -21.3900    -8.2520 ca         1 UJW      -0.018000
      7 C07        -19.7450   -21.3140    -9.5930 ca         1 UJW      -0.098000
      8 C08        -19.8420   -22.4190   -10.4280 ca         1 UJW      -0.111500
      9 C09        -20.3390   -23.6250    -9.9400 ca         1 UJW      -0.107000
     10 C11        -20.6490   -22.6040    -7.7770 ca         1 UJW      -0.098000
     11 C12        -19.5780   -20.1830    -6.0870 cc         1 UJW      -0.169300
     12 C14        -17.8020   -20.9560    -4.4420 c3         1 UJW       0.150800
     13 N01        -20.7670   -15.7920    -5.8770 nv         1 UJW      -1.084200
     14 N15        -17.3260   -22.1390    -3.7190 n8         1 UJW      -1.001200
     15 N17        -20.6480   -15.9840    -8.2320 n2         1 UJW      -0.817100
     16 S16        -19.6350   -18.5810    -5.4310 ss         1 UJW       0.185000
     17 H101       -21.1430   -24.6400    -8.2260 ha         1 UJW       0.113000
     18 H131       -19.8120   -21.6950    -4.5980 hc         1 UJW       0.064700
     19 H132       -18.7800   -22.1360    -5.9430 hc         1 UJW       0.064700
     20 H041       -20.8400   -18.7050    -8.8180 ha         1 UJW       0.154000
     21 H071       -19.3480   -20.3830    -9.9780 ha         1 UJW       0.116000
     22 H081       -19.5260   -22.3400   -11.4610 ha         1 UJW       0.113000
     23 H091       -20.4130   -24.4870   -10.5910 ha         1 UJW       0.113000
     24 H111       -20.9920   -22.6770    -6.7530 ha         1 UJW       0.116000
     25 H142       -17.0060   -20.6150    -5.1070 h1         1 UJW       0.034700
     26 H141       -18.0430   -20.1190    -3.7730 h1         1 UJW       0.034700
     27 H011       -21.1030   -16.2880    -5.0650 hn         1 UJW       0.464000
     28 H1         -16.4860   -21.9070    -3.1990 hn         1 UJW       0.395000
     29 H152       -18.0170   -22.4150    -3.0270 hn         1 UJW       0.395000
     30 H171       -20.9280   -15.0040    -8.1930 hn         1 UJW       0.369400
     31 H2         -21.0970   -14.8410    -5.9510 hn         1 UJW       0.464000
     32 C02        -20.6010   -16.4890    -7.0490 ce         1 UJW       0.686800
@<TRIPOS>BOND
     1     1     9 ar  
     2     1    10 ar  
     3     1    17 1   
     4     2    11 1   
     5     2    12 1   
     6     2    18 1   
     7     2    19 1   
     8     3     4 2   
     9     3    16 1   
    10     3    32 1   
    11     4     5 1   
    12     4    20 1   
    13     5     6 1   
    14     5    11 2   
    15     6     7 ar  
    16     6    10 ar  
    17     7     8 ar  
    18     7    21 1   
    19     8     9 ar  
    20     8    22 1   
    21     9    23 1   
    22    10    24 1   
    23    11    16 1   
    24    12    14 1   
    25    12    25 1   
    26    12    26 1   
    27    13    27 1   
    28    13    31 1   
    29    13    32 1   
    30    14    28 1   
    31    14    29 1   
    32    15    30 1   
    33    15    32 2   
@<TRIPOS>SUBSTRUCTURE
     1 UJW         1 TEMP              0 ****  ****    0 ROOT
