@<TRIPOS>MOLECULE
UJW
   32    33     1     0     0
SMALL
No Charge or Current Charge


@<TRIPOS>ATOM
      1 C10        -20.5210   -23.8040    -8.6710 ca         1 UJW      -0.111500
      2 C13        -19.0200   -21.3490    -5.2610 c3         1 UJW      -0.017100
      3 C03        -20.2710   -17.9220    -6.9280 cc         1 UJW      -0.272900
      4 C04        -20.3610   -18.9170    -7.8710 cd         1 UJW      -0.062000
      5 C05        -19.9690   -20.2220    -7.4360 cd         1 UJW      -0.067000
      6 C06        -20.1060   -21.4110    -8.3180 ca         1 UJW      -0.018000
      7 C07        -19.9950   -21.2590    -9.7190 ca         1 UJW      -0.098000
      8 C08        -20.1280   -22.3630   -10.5800 ca         1 UJW      -0.111500
      9 C09        -20.3880   -23.6370   -10.0570 ca         1 UJW      -0.107000
     10 C11        -20.3860   -22.7010    -7.8090 ca         1 UJW      -0.098000
     11 C12        -19.5880   -20.2200    -6.1020 cc         1 UJW      -0.169300
     12 C14        -17.9490   -20.9140    -4.2320 c3         1 UJW       0.150800
     13 N01        -20.4630   -15.6750    -6.0250 nv         1 UJW      -1.084200
     14 N15        -17.3660   -22.0690    -3.5160 n8         1 UJW      -1.001200
     15 N17        -20.9940   -16.0310    -8.1720 n2         1 UJW      -0.817100
     16 S16        -19.7020   -18.5970    -5.4130 ss         1 UJW       0.185000
     17 H101       -20.7420   -24.7880    -8.2610 ha         1 UJW       0.113000
     18 H131       -19.8350   -21.8560    -4.7310 hc         1 UJW       0.064700
     19 H132       -18.5510   -22.0920    -5.9170 hc         1 UJW       0.064700
     20 H041       -20.7310   -18.7160    -8.8720 ha         1 UJW       0.154000
     21 H071       -19.7750   -20.2880   -10.1530 ha         1 UJW       0.116000
     22 H081       -20.0270   -22.2280   -11.6550 ha         1 UJW       0.113000
     23 H091       -20.4930   -24.4910   -10.7230 ha         1 UJW       0.113000
     24 H111       -20.5460   -22.8590    -6.7490 ha         1 UJW       0.116000
     25 H142       -17.1410   -20.3800    -4.7510 h1         1 UJW       0.034700
     26 H141       -18.3940   -20.2360    -3.4900 h1         1 UJW       0.034700
     27 H011       -20.3470   -16.1250    -5.1270 hn         1 UJW       0.464000
     28 H1         -16.6940   -21.7260    -2.8170 hn         1 UJW       0.395000
     29 H152       -18.0950   -22.5150    -2.9460 hn         1 UJW       0.395000
     30 H171       -20.9170   -15.0110    -8.1130 hn         1 UJW       0.369400
     31 H2         -21.0650   -14.8590    -6.0270 hn         1 UJW       0.464000
     32 C02        -20.5930   -16.5110    -7.0710 ce         1 UJW       0.686800
@<TRIPOS>BOND
     1     1     9 ar  
     2     1    10 ar  
     3     1    17 1   
     4     2    11 1   
     5     2    12 1   
     6     2    18 1   
     7     2    19 1   
     8     3     4 2   
     9     3    16 1   
    10     3    32 1   
    11     4     5 1   
    12     4    20 1   
    13     5     6 1   
    14     5    11 2   
    15     6     7 ar  
    16     6    10 ar  
    17     7     8 ar  
    18     7    21 1   
    19     8     9 ar  
    20     8    22 1   
    21     9    23 1   
    22    10    24 1   
    23    11    16 1   
    24    12    14 1   
    25    12    25 1   
    26    12    26 1   
    27    13    27 1   
    28    13    31 1   
    29    13    32 1   
    30    14    28 1   
    31    14    29 1   
    32    15    30 1   
    33    15    32 2   
@<TRIPOS>SUBSTRUCTURE
     1 UJW         1 TEMP              0 ****  ****    0 ROOT
