@<TRIPOS>MOLECULE
UJZ
   18    19     1     0     0
SMALL
No Charge or Current Charge


@<TRIPOS>ATOM
      1 C02         -7.7760     4.5870   -57.8930 ca         1 UJZ       0.026100
      2 C03         -8.0240     5.6080   -56.9500 ca         1 UJZ      -0.062000
      3 C04         -8.3650     6.9230   -57.3720 ca         1 UJZ      -0.187300
      4 C05         -8.4410     7.2070   -58.7580 ca         1 UJZ      -0.041000
      5 C06         -8.1870     6.1620   -59.6560 ca         1 UJZ      -0.100200
      6 C08         -7.8720     4.8630   -61.4250 cc         1 UJZ       0.431700
      7 C10         -7.8670     4.8970   -59.2600 ca         1 UJZ       0.109400
      8 C11         -8.6210     8.0220   -56.3350 c3         1 UJZ       0.359300
      9 F12         -9.4180     9.0070   -56.8100 f          1 UJZ      -0.112000
     10 F13         -7.4660     8.6040   -55.9430 f          1 UJZ      -0.112000
     11 F14         -9.2210     7.5430   -55.2220 f          1 UJZ      -0.112000
     12 N07         -8.1940     6.1570   -61.0190 na         1 UJZ      -0.305600
     13 N09         -7.6640     4.0610   -60.3580 nd         1 UJZ      -0.557100
     14 Br1         -7.3210     2.8200   -57.3060 br         1 UJZ      -0.052100
     15 H1          -7.9480     5.3740   -55.8900 ha         1 UJZ       0.144000
     16 H2          -8.6860     8.2020   -59.1250 ha         1 UJZ       0.138000
     17 H3          -7.8080     4.5790   -62.4690 h5         1 UJZ       0.069800
     18 H4          -8.3920     6.9340   -61.6360 hn         1 UJZ       0.364000
@<TRIPOS>BOND
     1     1     2 ar  
     2     1     7 ar  
     3     1    14 1   
     4     2     3 ar  
     5     2    15 1   
     6     3     4 ar  
     7     3     8 1   
     8     4     5 ar  
     9     4    16 1   
    10     5     7 ar  
    11     5    12 1   
    12     6    12 1   
    13     6    13 2   
    14     6    17 1   
    15     7    13 1   
    16     8     9 1   
    17     8    10 1   
    18     8    11 1   
    19    12    18 1   
@<TRIPOS>SUBSTRUCTURE
     1 UJZ         1 TEMP              0 ****  ****    0 ROOT
