@<TRIPOS>MOLECULE
UJZ
   18    19     1     0     0
SMALL
abcg2


@<TRIPOS>ATOM
      1 C02         -7.7210     4.6420   -57.8820 ca         1 UJZ       0.026100
      2 C03         -7.9720     5.6450   -56.9730 ca         1 UJZ      -0.062000
      3 C04         -8.3510     6.9260   -57.4170 ca         1 UJZ      -0.187300
      4 C05         -8.4750     7.2300   -58.7590 ca         1 UJZ      -0.041000
      5 C06         -8.2130     6.1990   -59.6500 ca         1 UJZ      -0.100200
      6 C08         -7.9020     4.8690   -61.3570 cc         1 UJZ       0.431700
      7 C10         -7.8400     4.9070   -59.2460 ca         1 UJZ       0.109400
      8 C11         -8.6130     7.9650   -56.3720 c3         1 UJZ       0.359300
      9 F12         -9.0890     9.1000   -56.8860 f          1 UJZ      -0.112000
     10 F13         -7.5010     8.2780   -55.6910 f          1 UJZ      -0.112000
     11 F14         -9.5050     7.5390   -55.4660 f          1 UJZ      -0.112000
     12 N07         -8.2410     6.1310   -61.0140 na         1 UJZ      -0.305600
     13 N09         -7.6530     4.1010   -60.3310 nd         1 UJZ      -0.557100
     14 BR1         -7.2290     2.9210   -57.3190 br         1 UJZ      -0.052100
     15 H1          -7.8810     5.4460   -55.9130 ha         1 UJZ       0.144000
     16 H2          -8.7630     8.2120   -59.1100 ha         1 UJZ       0.138000
     17 H3          -7.8530     4.5600   -62.3900 h5         1 UJZ       0.069800
     18 H4          -8.4700     6.8790   -61.6520 hn         1 UJZ       0.364000
@<TRIPOS>BOND
     1     1     2 ar  
     2     1     7 ar  
     3     1    14 1   
     4     2     3 ar  
     5     2    15 1   
     6     3     4 ar  
     7     3     8 1   
     8     4     5 ar  
     9     4    16 1   
    10     5     7 ar  
    11     5    12 1   
    12     6    12 1   
    13     6    13 2   
    14     6    17 1   
    15     7    13 1   
    16     8     9 1   
    17     8    10 1   
    18     8    11 1   
    19    12    18 1   
@<TRIPOS>SUBSTRUCTURE
     1 UJZ         1 TEMP              0 ****  ****    0 ROOT
