@<TRIPOS>MOLECULE
UK0
   50    52     1     0     0
SMALL
No Charge or Current Charge


@<TRIPOS>ATOM
      1 C13        149.9440   133.8620   135.1500 c3         1 UK0      -0.075100
      2 C04        148.5400   134.5460   134.9780 c6         1 UK0      -0.022000
      3 C06        147.7700   135.4030   137.3950 c6         1 UK0       0.025200
      4 C07        148.6480   136.1070   134.6330 c6         1 UK0      -0.046700
      5 C08        147.4770   136.8330   136.8290 c6         1 UK0      -0.059400
      6 C09        147.4900   136.9210   135.2760 c6         1 UK0      -0.072400
      7 C11        147.8170   133.8230   133.7590 c3         1 UK0      -0.074400
      8 C1         150.0230   136.8080   134.8820 c3         1 UK0      -0.080100
      9 C18        148.5630   133.7030   132.3990 c3         1 UK0      -0.003100
     10 C2         147.6210   134.3280   136.2660 c6         1 UK0      -0.053700
     11 C20        149.5070   132.5310   132.3070 cc         1 UK0      -0.135300
     12 C21        150.8240   132.5960   131.8090 cc         1 UK0      -0.187000
     13 C22        149.3190   131.2170   132.6580 cd         1 UK0       0.124900
     14 C23        151.3490   131.3370   131.8920 cd         1 UK0       0.110900
     15 C3         149.1060   135.3660   138.2040 c3         1 UK0      -0.080100
     16 C4         147.6040   132.8790   136.8730 c6         1 UK0      -0.064400
     17 C5         146.3000   132.5440   137.6660 c6         1 UK0      -0.033200
     18 C6         145.8710   133.5390   138.7450 c2         1 UK0      -0.265200
     19 C7         146.3070   134.8210   138.8100 ce         1 UK0      -0.151400
     20 C8         145.8780   135.8170   139.8620 c          1 UK0       0.699200
     21 O03        150.4380   130.4520   132.4160 os         1 UK0      -0.263000
     22 O1         145.0390   135.4780   140.6850 o          1 UK0      -0.729500
     23 O2         146.3920   136.9240   139.8630 o          1 UK0      -0.729500
     24 H1         150.4770   134.2050   136.0390 hc         1 UK0       0.028700
     25 H2         149.8570   132.7730   135.2350 hc         1 UK0       0.028700
     26 H3         150.6020   134.0580   134.2970 hc         1 UK0       0.028700
     27 H4         148.5150   136.2340   133.5520 hc         1 UK0       0.017700
     28 H5         148.1910   137.5580   137.2420 hc         1 UK0       0.056700
     29 H6         146.4900   137.1630   137.1780 hc         1 UK0       0.056700
     30 H7         147.5510   137.9750   134.9700 hc         1 UK0       0.026200
     31 H8         146.5300   136.5600   134.8820 hc         1 UK0       0.026200
     32 H9         146.8790   134.3550   133.5530 hc         1 UK0       0.039700
     33 H10        147.4990   132.8130   134.0340 hc         1 UK0       0.039700
     34 H11        149.9850   137.8500   134.5400 hc         1 UK0       0.027700
     35 H12        150.3100   136.8390   135.9340 hc         1 UK0       0.027700
     36 H13        150.8340   136.3320   134.3200 hc         1 UK0       0.027700
     37 H14        149.0990   134.6310   132.1690 hc         1 UK0       0.042700
     38 H15        147.8110   133.5920   131.6080 hc         1 UK0       0.042700
     39 H16        146.5900   134.4620   135.9060 hc         1 UK0       0.042700
     40 H17        151.3210   133.4850   131.4360 ha         1 UK0       0.134000
     41 H18        148.4560   130.7170   133.0800 h4         1 UK0       0.055100
     42 H19        152.3250   130.9550   131.6190 h4         1 UK0       0.042100
     43 H20        149.0750   136.1000   139.0180 hc         1 UK0       0.034033
     44 H21        149.2730   134.3940   138.6780 hc         1 UK0       0.034033
     45 H22        149.9880   135.5990   137.6110 hc         1 UK0       0.034033
     46 H23        147.6990   132.1270   136.0820 hc         1 UK0       0.023700
     47 H24        148.4780   132.7130   137.5140 hc         1 UK0       0.023700
     48 H25        145.4730   132.4420   136.9500 hc         1 UK0       0.019700
     49 H26        146.4120   131.5520   138.1260 hc         1 UK0       0.019700
     50 H27        145.1420   133.1670   139.4670 ha         1 UK0       0.186000
@<TRIPOS>BOND
     1     1     2 1   
     2     1    24 1   
     3     1    25 1   
     4     1    26 1   
     5     2     4 1   
     6     2     7 1   
     7     2    10 1   
     8     3     5 1   
     9     3    10 1   
    10     3    15 1   
    11     3    19 1   
    12     4     6 1   
    13     4     8 1   
    14     4    27 1   
    15     5     6 1   
    16     5    28 1   
    17     5    29 1   
    18     6    30 1   
    19     6    31 1   
    20     7     9 1   
    21     7    32 1   
    22     7    33 1   
    23     8    34 1   
    24     8    35 1   
    25     8    36 1   
    26     9    11 1   
    27     9    37 1   
    28     9    38 1   
    29    10    16 1   
    30    10    39 1   
    31    11    12 1   
    32    11    13 2   
    33    12    14 2   
    34    12    40 1   
    35    13    21 1   
    36    13    41 1   
    37    14    21 1   
    38    14    42 1   
    39    15    43 1   
    40    15    44 1   
    41    15    45 1   
    42    16    17 1   
    43    16    46 1   
    44    16    47 1   
    45    17    18 1   
    46    17    48 1   
    47    17    49 1   
    48    18    19 2   
    49    18    50 1   
    50    19    20 1   
    51    20    22 1   
    52    20    23 1   
@<TRIPOS>SUBSTRUCTURE
     1 UK0         1 TEMP              0 ****  ****    0 ROOT
