@<TRIPOS>MOLECULE
UK0
   50    52     1     0     0
SMALL
abcg2


@<TRIPOS>ATOM
      1 C13        149.9550   133.9690   135.2260 c3         1 UK0      -0.075100
      2 C04        148.5520   134.5650   135.0430 c6         1 UK0      -0.022000
      3 C06        147.6600   135.2840   137.4540 c6         1 UK0       0.025200
      4 C07        148.6010   136.1090   134.7340 c6         1 UK0      -0.046700
      5 C08        147.3700   136.7140   136.8920 c6         1 UK0      -0.059400
      6 C09        147.3910   136.8030   135.3640 c6         1 UK0      -0.072400
      7 C11        147.8480   133.8940   133.8280 c3         1 UK0      -0.074400
      8 C1         149.8980   136.8530   135.0690 c3         1 UK0      -0.080100
      9 C18        148.6590   133.7960   132.5280 c3         1 UK0      -0.003100
     10 C2         147.6230   134.2710   136.2700 c6         1 UK0      -0.053700
     11 C20        149.5110   132.5690   132.3850 cc         1 UK0      -0.135300
     12 C21        150.7230   132.4670   131.6140 cc         1 UK0      -0.187000
     13 C22        149.3070   131.3290   132.9000 cd         1 UK0       0.124900
     14 C23        151.1560   131.1870   131.7230 cd         1 UK0       0.110900
     15 C3         149.0030   135.2810   138.2160 c3         1 UK0      -0.080100
     16 C4         147.7230   132.8360   136.7930 c6         1 UK0      -0.064400
     17 C5         146.4880   132.5020   137.6250 c6         1 UK0      -0.033200
     18 C6         146.0590   133.6460   138.4910 c2         1 UK0      -0.265200
     19 C7         146.5620   134.8830   138.4470 ce         1 UK0      -0.151400
     20 C8         146.0450   135.9060   139.4610 c          1 UK0       0.699200
     21 O03        150.3020   130.4700   132.5080 os         1 UK0      -0.263000
     22 O1         144.8260   135.8490   139.7760 o          1 UK0      -0.729500
     23 O2         146.8740   136.7310   139.9310 o          1 UK0      -0.729500
     24 H1         150.4630   134.3850   136.0930 hc         1 UK0       0.028700
     25 H2         149.9050   132.8890   135.3510 hc         1 UK0       0.028700
     26 H3         150.5780   134.1630   134.3550 hc         1 UK0       0.028700
     27 H4         148.4920   136.2090   133.6510 hc         1 UK0       0.017700
     28 H5         148.0960   137.4130   137.3090 hc         1 UK0       0.056700
     29 H6         146.3950   137.0590   137.2390 hc         1 UK0       0.056700
     30 H7         147.3790   137.8550   135.0670 hc         1 UK0       0.026200
     31 H8         146.4760   136.3640   134.9580 hc         1 UK0       0.026200
     32 H9         146.9420   134.4710   133.6260 hc         1 UK0       0.039700
     33 H10        147.5040   132.8970   134.1050 hc         1 UK0       0.039700
     34 H11        149.8020   137.8950   134.7520 hc         1 UK0       0.027700
     35 H12        150.1320   136.8590   136.1310 hc         1 UK0       0.027700
     36 H13        150.7530   136.4290   134.5420 hc         1 UK0       0.027700
     37 H14        149.2940   134.6780   132.4090 hc         1 UK0       0.042700
     38 H15        147.9640   133.8270   131.6830 hc         1 UK0       0.042700
     39 H16        146.6060   134.3640   135.8730 hc         1 UK0       0.042700
     40 H17        151.2000   133.2610   131.0620 ha         1 UK0       0.134000
     41 H18        148.5550   130.9070   133.5440 h4         1 UK0       0.055100
     42 H19        152.0050   130.6530   131.3330 h4         1 UK0       0.042100
     43 H20        148.9080   135.9370   139.0780 hc         1 UK0       0.034033
     44 H21        149.2580   134.2830   138.5750 hc         1 UK0       0.034033
     45 H22        149.8250   135.6390   137.6010 hc         1 UK0       0.034033
     46 H23        147.8140   132.1240   135.9710 hc         1 UK0       0.023700
     47 H24        148.6210   132.7160   137.4010 hc         1 UK0       0.023700
     48 H25        145.6550   132.2340   136.9610 hc         1 UK0       0.019700
     49 H26        146.6640   131.6150   138.2430 hc         1 UK0       0.019700
     50 H27        145.2650   133.4460   139.2030 ha         1 UK0       0.186000
@<TRIPOS>BOND
     1     1     2 1   
     2     1    24 1   
     3     1    25 1   
     4     1    26 1   
     5     2     4 1   
     6     2     7 1   
     7     2    10 1   
     8     3     5 1   
     9     3    10 1   
    10     3    15 1   
    11     3    19 1   
    12     4     6 1   
    13     4     8 1   
    14     4    27 1   
    15     5     6 1   
    16     5    28 1   
    17     5    29 1   
    18     6    30 1   
    19     6    31 1   
    20     7     9 1   
    21     7    32 1   
    22     7    33 1   
    23     8    34 1   
    24     8    35 1   
    25     8    36 1   
    26     9    11 1   
    27     9    37 1   
    28     9    38 1   
    29    10    16 1   
    30    10    39 1   
    31    11    12 1   
    32    11    13 2   
    33    12    14 2   
    34    12    40 1   
    35    13    21 1   
    36    13    41 1   
    37    14    21 1   
    38    14    42 1   
    39    15    43 1   
    40    15    44 1   
    41    15    45 1   
    42    16    17 1   
    43    16    46 1   
    44    16    47 1   
    45    17    18 1   
    46    17    48 1   
    47    17    49 1   
    48    18    19 2   
    49    18    50 1   
    50    19    20 1   
    51    20    22 1   
    52    20    23 1   
@<TRIPOS>SUBSTRUCTURE
     1 UK0         1 TEMP              0 ****  ****    0 ROOT
