@<TRIPOS>MOLECULE
UK1
  114   123     1     0     0
SMALL
No Charge or Current Charge


@<TRIPOS>ATOM
      1 C01        129.4890   105.4390    88.4170 ca         1 UK1      -0.099800
      2 C02        130.5280   105.9450    87.6110 ca         1 UK1      -0.078500
      3 C03        130.2950   106.2570    86.2590 ca         1 UK1       0.004800
      4 C04        129.0170   106.0480    85.7030 ca         1 UK1      -0.078500
      5 C05        127.9680   105.5430    86.4960 ca         1 UK1      -0.099800
      6 C06        128.2120   105.2420    87.8520 ca         1 UK1       0.163000
      7 C08        129.7480   105.1130    89.8830 c3         1 UK1      -0.041800
      8 C09        126.5860   105.3300    85.8910 c3         1 UK1      -0.041800
      9 C12        133.1400   107.1140    84.5150 cc         1 UK1       0.271300
     10 C13        132.3490   108.2630    84.3010 cc         1 UK1      -0.206300
     11 C14        131.1660   108.0720    84.9560 cd         1 UK1       0.024600
     12 C16        134.5840   107.0980    84.0550 c6         1 UK1      -0.122700
     13 C17        135.1980   108.5250    83.8700 c6         1 UK1       0.093000
     14 C19        132.9390   109.5080    83.7050 c6         1 UK1       0.204000
     15 C20        132.9630   109.4310    82.1490 c3         1 UK1      -0.102100
     16 C23        133.6170   111.3100    86.0740 cc         1 UK1      -0.104300
     17 C25        132.6350   112.9800    87.3440 ca         1 UK1      -0.068200
     18 C26        132.3900   113.3020    86.0410 ca         1 UK1      -0.064800
     19 C27        133.0200   112.2730    85.2570 cd         1 UK1      -0.202200
     20 C28        133.6510   111.0820    88.6670 c3         1 UK1       0.047000
     21 C29        132.1880   113.8100    88.3860 ca         1 UK1      -0.106000
     22 C30        131.4690   114.9740    88.0440 ca         1 UK1      -0.138000
     23 C31        131.2030   115.3000    86.6920 ca         1 UK1       0.286000
     24 C32        131.6770   114.4480    85.6670 ca         1 UK1      -0.120000
     25 C34        129.5030   116.5090    85.2550 c6         1 UK1       0.164800
     26 C35        128.3990   117.5900    85.4530 c6         1 UK1       0.154600
     27 C37        129.8230   118.8680    86.9740 c6         1 UK1       0.174000
     28 C38        130.9730   117.8120    86.8170 c6         1 UK1       0.172800
     29 C39        128.9380   118.5980    88.2320 c3         1 UK1      -0.097600
     30 C40        130.4020   120.3040    87.0880 c3         1 UK1      -0.097600
     31 C41        129.6090   109.3070    86.4340 cc         1 UK1      -0.135400
     32 C42        128.7900   110.4070    86.2960 cd         1 UK1      -0.151400
     33 C44        129.6510   109.9050    84.2260 c          1 UK1       0.582000
     34 C46        128.1060   111.9430    84.5610 ca         1 UK1      -0.034400
     35 C47        128.6980   112.8880    83.6780 ca         1 UK1       0.266000
     36 C48        127.9390   113.9900    83.2810 ca         1 UK1      -0.272900
     37 C49        126.6790   114.1980    83.7330 ca         1 UK1      -0.009200
     38 C50        126.0490   113.3080    84.6110 ca         1 UK1      -0.139000
     39 C51        126.7750   112.1640    85.0170 ca         1 UK1      -0.045000
     40 C52        128.2390   115.0940    82.4070 cc         1 UK1       0.385800
     41 C57        134.8440   111.7720    89.3990 c3         1 UK1      -0.084400
     42 C58        135.6090   110.9160    90.4430 c3         1 UK1      -0.078400
     43 C59        136.2750   109.6470    89.8690 c3         1 UK1      -0.084100
     44 C60        132.4130   110.8260    89.5190 cc         1 UK1       0.367900
     45 C63        130.2410   110.5320    89.8810 c          1 UK1       0.653100
     46 F10        127.2080   104.7570    88.6200 f          1 UK1      -0.186000
     47 F55        129.9710   112.7620    83.2400 f          1 UK1      -0.157000
     48 N07        131.3280   106.7800    85.4810 na         1 UK1       0.221000
     49 N11        132.5420   106.1730    85.2180 nd         1 UK1      -0.475800
     50 N15        130.1650   109.0190    85.1850 n          1 UK1      -0.214200
     51 N18        134.2880   109.6250    84.3230 n          1 UK1      -0.396800
     52 N24        133.3480   111.7810    87.3870 na         1 UK1      -0.103700
     53 N33        130.4660   116.4680    86.3950 nh         1 UK1      -0.775400
     54 N43        128.8200   110.7560    84.9550 n          1 UK1      -0.216200
     55 N53        127.2130   115.9580    82.3280 nd         1 UK1      -0.511100
     56 N54        126.2560   115.3780    83.1590 na         1 UK1       0.067600
     57 N61        132.3500   110.5850    90.7830 n2         1 UK1      -0.295700
     58 N64        131.1880   110.7820    88.9590 ns         1 UK1      -0.553900
     59 O22        135.2550   109.6160    86.4020 o          1 UK1      -0.609100
     60 O36        128.9800   118.8760    85.7910 os         1 UK1      -0.445000
     61 O62        130.9460   110.3880    91.0650 os         1 UK1      -0.230100
     62 O65        129.0380   110.4530    89.7050 o          1 UK1      -0.524000
     63 H1         131.5180   106.1040    88.0350 ha         1 UK1       0.143500
     64 H2         128.8410   106.2880    84.6560 ha         1 UK1       0.143500
     65 H3         129.0960   105.7030    90.5370 hc         1 UK1       0.050033
     66 H4         129.5580   104.0520    90.0880 hc         1 UK1       0.050033
     67 H5         130.7850   105.3250    90.1720 hc         1 UK1       0.050033
     68 H6         126.2930   104.2740    85.9460 hc         1 UK1       0.050033
     69 H7         125.8290   105.9160    86.4260 hc         1 UK1       0.050033
     70 H8         126.5500   105.6290    84.8360 hc         1 UK1       0.050033
     71 H9         135.1930   106.5500    84.7870 hc         1 UK1       0.074700
     72 H10        134.6750   106.5370    83.1160 hc         1 UK1       0.074700
     73 H11        136.1600   108.5780    84.3980 h1         1 UK1       0.069200
     74 H12        135.4480   108.6800    82.8110 h1         1 UK1       0.069200
     75 H13        132.3060   110.3570    83.9710 h1         1 UK1       0.070700
     76 H14        133.4930   110.2930    81.7270 hc         1 UK1       0.050700
     77 H15        133.4480   108.5220    81.7780 hc         1 UK1       0.050700
     78 H16        131.9530   109.4340    81.7300 hc         1 UK1       0.050700
     79 H17        133.1040   112.3090    84.1740 ha         1 UK1       0.215000
     80 H18        133.9860   110.0790    88.3920 h1         1 UK1       0.128700
     81 H19        132.3760   113.5760    89.4300 ha         1 UK1       0.114000
     82 H20        131.1010   115.6240    88.8330 ha         1 UK1       0.114000
     83 H21        131.5060   114.6780    84.6210 ha         1 UK1       0.123000
     84 H23        130.0390   116.7120    84.3160 h1         1 UK1       0.042700
     85 H24        127.8180   117.6970    84.5270 h1         1 UK1       0.048700
     86 H25        127.7020   117.2760    86.2420 h1         1 UK1       0.048700
     87 H26        131.6910   118.1760    86.0670 h1         1 UK1       0.042700
     88 H27        131.5170   117.7390    87.7690 h1         1 UK1       0.042700
     89 H28        128.0510   119.2430    88.2430 hc         1 UK1       0.045367
     90 H29        128.6000   117.5570    88.2840 hc         1 UK1       0.045367
     91 H30        129.4980   118.7930    89.1540 hc         1 UK1       0.045367
     92 H31        129.6050   121.0510    87.1870 hc         1 UK1       0.045367
     93 H32        131.0590   120.4000    87.9610 hc         1 UK1       0.045367
     94 H33        130.9930   120.5650    86.2010 hc         1 UK1       0.045367
     95 H34        129.8870   108.7070    87.2950 h4         1 UK1       0.246000
     96 H35        128.2030   110.9710    87.0180 h4         1 UK1       0.232000
     97 H36        125.0340   113.4800    84.9620 ha         1 UK1       0.130000
     98 H37        126.2960   111.4420    85.6750 ha         1 UK1       0.130000
     99 H38        129.1300   115.3230    81.8380 h4         1 UK1       0.061800
    100 H42        135.5720   112.0950    88.6430 hc         1 UK1       0.062700
    101 H43        134.4910   112.6890    89.8840 hc         1 UK1       0.062700
    102 H44        136.3940   111.5420    90.8850 hc         1 UK1       0.053200
    103 H45        134.9490   110.6340    91.2710 hc         1 UK1       0.053200
    104 H46        136.8970   109.1660    90.6340 hc         1 UK1       0.039700
    105 H47        135.5260   108.9170    89.5410 hc         1 UK1       0.039700
    106 H48        136.9170   109.8960    89.0150 hc         1 UK1       0.039700
    107 H49        130.9680   111.0030    87.9970 hn         1 UK1       0.484000
    108 O45        129.8420   109.9060    83.0190 o          1 UK1      -0.552000
    109 C21        134.4520   110.1380    85.6380 c          1 UK1       0.624300
    110 C56        124.9400   115.9850    83.4060 c3         1 UK1       0.081900
    111 H22        129.0120   115.5320    85.1550 h1         1 UK1       0.042700
    112 H39        124.8440   116.9160    82.8330 h1         1 UK1       0.058367
    113 H40        124.1520   115.2880    83.0970 h1         1 UK1       0.058367
    114 H41        124.8330   116.2050    84.4750 h1         1 UK1       0.058367
@<TRIPOS>BOND
     1     1     2 ar  
     2     1     6 ar  
     3     1     7 1   
     4     2     3 ar  
     5     2    63 1   
     6     3     4 ar  
     7     3    48 1   
     8     4     5 ar  
     9     4    64 1   
    10     5     6 ar  
    11     5     8 1   
    12     6    46 1   
    13     7    65 1   
    14     7    66 1   
    15     7    67 1   
    16     8    68 1   
    17     8    69 1   
    18     8    70 1   
    19     9    10 1   
    20     9    12 1   
    21     9    49 2   
    22    10    11 2   
    23    10    14 1   
    24    11    48 1   
    25    11    50 1   
    26    12    13 1   
    27    12    71 1   
    28    12    72 1   
    29    13    51 1   
    30    13    73 1   
    31    13    74 1   
    32    14    15 1   
    33    14    51 1   
    34    14    75 1   
    35    15    76 1   
    36    15    77 1   
    37    15    78 1   
    38    16    19 2   
    39    16    52 1   
    40    16   109 1   
    41    17    18 ar  
    42    17    21 ar  
    43    17    52 1   
    44    18    19 1   
    45    18    24 ar  
    46    19    79 1   
    47    20    41 1   
    48    20    44 1   
    49    20    52 1   
    50    20    80 1   
    51    21    22 ar  
    52    21    81 1   
    53    22    23 ar  
    54    22    82 1   
    55    23    24 ar  
    56    23    53 1   
    57    24    83 1   
    58    25    26 1   
    59    25    53 1   
    60    25    84 1   
    61    25   111 1   
    62    26    60 1   
    63    26    85 1   
    64    26    86 1   
    65    27    28 1   
    66    27    29 1   
    67    27    30 1   
    68    27    60 1   
    69    28    53 1   
    70    28    87 1   
    71    28    88 1   
    72    29    89 1   
    73    29    90 1   
    74    29    91 1   
    75    30    92 1   
    76    30    93 1   
    77    30    94 1   
    78    31    32 2   
    79    31    50 1   
    80    31    95 1   
    81    32    54 1   
    82    32    96 1   
    83    33    50 1   
    84    33    54 1   
    85    33   108 2   
    86    34    35 ar  
    87    34    39 ar  
    88    34    54 1   
    89    35    36 ar  
    90    35    47 1   
    91    36    37 ar  
    92    36    40 1   
    93    37    38 ar  
    94    37    56 1   
    95    38    39 ar  
    96    38    97 1   
    97    39    98 1   
    98    40    55 2   
    99    40    99 1   
   100    41    42 1   
   101    41   100 1   
   102    41   101 1   
   103    42    43 1   
   104    42   102 1   
   105    42   103 1   
   106    43   104 1   
   107    43   105 1   
   108    43   106 1   
   109    44    57 2   
   110    44    58 1   
   111    45    58 1   
   112    45    61 1   
   113    45    62 2   
   114    48    49 1   
   115    51   109 1   
   116    55    56 1   
   117    56   110 1   
   118    57    61 1   
   119    58   107 1   
   120    59   109 2   
   121   110   112 1   
   122   110   113 1   
   123   110   114 1   
@<TRIPOS>SUBSTRUCTURE
     1 UK1         1 TEMP              0 ****  ****    0 ROOT
