@<TRIPOS>MOLECULE
UK1
  114   123     1     0     0
SMALL
abcg2


@<TRIPOS>ATOM
      1 C01        128.5540   105.6200    88.5350 ca         1 UK1      -0.099800
      2 C02        129.6230   106.1950    87.8590 ca         1 UK1      -0.078500
      3 C03        129.4410   106.7680    86.6100 ca         1 UK1       0.004800
      4 C04        128.1940   106.7790    86.0040 ca         1 UK1      -0.078500
      5 C05        127.0940   106.2300    86.6590 ca         1 UK1      -0.099800
      6 C06        127.3170   105.6770    87.9080 ca         1 UK1       0.163000
      7 C08        128.7200   105.0370    89.9060 c3         1 UK1      -0.041800
      8 C09        125.7320   106.2510    86.0390 c3         1 UK1      -0.041800
      9 C12        132.6330   107.6210    85.4860 cc         1 UK1       0.271300
     10 C13        131.9980   108.8290    85.1450 cc         1 UK1      -0.206300
     11 C14        130.6770   108.6320    85.4650 cd         1 UK1       0.024600
     12 C16        134.1010   107.4100    85.3410 c6         1 UK1      -0.122700
     13 C17        134.6790   108.4840    84.4060 c6         1 UK1       0.093000
     14 C19        132.7020   110.0030    84.5240 c6         1 UK1       0.204000
     15 C20        132.3810   110.1730    83.0380 c3         1 UK1      -0.102100
     16 C23        134.3830   112.0210    85.7490 cc         1 UK1      -0.104300
     17 C25        133.8110   113.5660    87.2940 ca         1 UK1      -0.068200
     18 C26        133.3810   114.0240    86.0220 ca         1 UK1      -0.064800
     19 C27        133.7490   113.0210    85.0670 cd         1 UK1      -0.202200
     20 C28        135.0540   111.4160    88.0710 c3         1 UK1       0.047000
     21 C29        133.4990   114.3140    88.4270 ca         1 UK1      -0.106000
     22 C30        132.8100   115.5070    88.2800 ca         1 UK1      -0.138000
     23 C31        132.4070   116.0180    87.0190 ca         1 UK1       0.286000
     24 C32        132.6910   115.2420    85.8880 ca         1 UK1      -0.120000
     25 C34        130.8680   117.4730    85.7630 c6         1 UK1       0.164800
     26 C35        130.3870   118.9380    85.7070 c6         1 UK1       0.154600
     27 C37        131.2550   119.4780    87.8890 c6         1 UK1       0.174000
     28 C38        131.2440   117.9420    88.0790 c6         1 UK1       0.172800
     29 C39        130.0710   120.1330    88.5960 c3         1 UK1      -0.097600
     30 C40        132.5850   120.0720    88.3770 c3         1 UK1      -0.097600
     31 C41        129.2010   110.4260    86.3620 cc         1 UK1      -0.135400
     32 C42        128.0660   111.0050    85.9400 cd         1 UK1      -0.151400
     33 C44        128.6830   109.5150    84.3220 c          1 UK1       0.582000
     34 C46        126.6120   110.7980    83.9070 ca         1 UK1      -0.034400
     35 C47        126.7810   111.5430    82.7590 ca         1 UK1       0.266000
     36 C48        125.6790   111.8960    81.9800 ca         1 UK1      -0.272900
     37 C49        124.3930   111.4840    82.4070 ca         1 UK1      -0.009200
     38 C50        124.1930   110.7280    83.5690 ca         1 UK1      -0.139000
     39 C51        125.3140   110.3950    84.2990 ca         1 UK1      -0.045000
     40 C52        125.4460   112.6100    80.7720 cc         1 UK1       0.385800
     41 C57        135.8400   112.1360    89.2480 c3         1 UK1      -0.084400
     42 C58        136.4600   111.0320    90.2580 c3         1 UK1      -0.078400
     43 C59        137.9830   111.0140    90.1710 c3         1 UK1      -0.084100
     44 C60        133.9960   110.4010    88.4780 cc         1 UK1       0.367900
     45 C63        131.9480   109.6320    88.8860 c          1 UK1       0.653100
     46 F10        126.2520   105.1410    88.5610 f          1 UK1      -0.186000
     47 F55        128.0130   111.9440    82.3880 f          1 UK1      -0.157000
     48 N07        130.5680   107.3630    85.9760 na         1 UK1       0.221000
     49 N11        131.7720   106.7430    85.9930 nd         1 UK1      -0.475800
     50 N15        129.5940   109.5070    85.3720 n          1 UK1      -0.214200
     51 N18        134.1440   109.8110    84.7490 n          1 UK1      -0.396800
     52 N24        134.4760   112.3520    87.0990 na         1 UK1      -0.103700
     53 N33        131.7750   117.2760    86.8980 nh         1 UK1      -0.775400
     54 N43        127.7390   110.4470    84.6950 n          1 UK1      -0.216200
     55 N53        124.1570   112.6220    80.4890 nd         1 UK1      -0.511100
     56 N54        123.5170   111.9380    81.4700 na         1 UK1       0.067600
     57 N61        134.1400   109.1140    88.5250 n2         1 UK1      -0.295700
     58 N64        132.6850   110.7550    88.6700 ns         1 UK1      -0.553900
     59 O22        136.1830   110.5120    85.4710 o          1 UK1      -0.609100
     60 O36        131.2270   119.7950    86.4790 os         1 UK1      -0.445000
     61 O62        132.8280   108.6050    88.7870 os         1 UK1      -0.230100
     62 O65        130.7630   109.4860    89.1140 o          1 UK1      -0.524000
     63 H1         130.5970   106.1940    88.3070 ha         1 UK1       0.143500
     64 H2         128.0680   107.1770    85.0110 ha         1 UK1       0.143500
     65 H3         128.5620   105.8040    90.6690 hc         1 UK1       0.050033
     66 H4         128.0080   104.2420    90.0950 hc         1 UK1       0.050033
     67 H5         129.7270   104.6400    90.0270 hc         1 UK1       0.050033
     68 H6         125.5520   105.3380    85.4630 hc         1 UK1       0.050033
     69 H7         124.9550   106.3170    86.7970 hc         1 UK1       0.050033
     70 H8         125.6260   107.1020    85.3730 hc         1 UK1       0.050033
     71 H9         134.5890   107.4730    86.3190 hc         1 UK1       0.074700
     72 H10        134.3310   106.4190    84.9450 hc         1 UK1       0.074700
     73 H11        135.7580   108.5300    84.4930 h1         1 UK1       0.069200
     74 H12        134.4320   108.2620    83.3660 h1         1 UK1       0.069200
     75 H13        132.3990   110.9130    85.0380 h1         1 UK1       0.070700
     76 H14        132.9750   110.9880    82.6170 hc         1 UK1       0.050700
     77 H15        132.6040   109.2640    82.4800 hc         1 UK1       0.050700
     78 H16        131.3210   110.3970    82.9090 hc         1 UK1       0.050700
     79 H17        133.5770   113.0500    84.0000 ha         1 UK1       0.215000
     80 H18        135.8080   110.8590    87.5280 h1         1 UK1       0.128700
     81 H19        133.7440   113.9800    89.4230 ha         1 UK1       0.114000
     82 H20        132.6010   116.0630    89.1850 ha         1 UK1       0.114000
     83 H21        132.3910   115.5540    84.9020 ha         1 UK1       0.123000
     84 H23        131.3770   117.2330    84.8290 h1         1 UK1       0.042700
     85 H24        130.4520   119.3120    84.6870 h1         1 UK1       0.048700
     86 H25        129.3460   119.0180    86.0290 h1         1 UK1       0.048700
     87 H26        131.8590   117.7260    88.9450 h1         1 UK1       0.042700
     88 H27        130.2270   117.5730    88.3130 h1         1 UK1       0.042700
     89 H28        130.1260   121.2170    88.4940 hc         1 UK1       0.045367
     90 H29        129.1200   119.7720    88.1840 hc         1 UK1       0.045367
     91 H30        130.0730   119.8890    89.6640 hc         1 UK1       0.045367
     92 H31        132.6350   121.1430    88.1620 hc         1 UK1       0.045367
     93 H32        132.6980   119.9280    89.4640 hc         1 UK1       0.045367
     94 H33        133.4230   119.5850    87.8610 hc         1 UK1       0.045367
     95 H34        129.7930   110.5770    87.2490 h4         1 UK1       0.246000
     96 H35        127.4560   111.7680    86.3850 h4         1 UK1       0.232000
     97 H36        123.2060   110.4320    83.8900 ha         1 UK1       0.130000
     98 H37        125.2260   109.8140    85.2070 ha         1 UK1       0.130000
     99 H38        126.1580   113.0910    80.1220 h4         1 UK1       0.061800
    100 H42        136.6350   112.7090    88.7830 hc         1 UK1       0.062700
    101 H43        135.1740   112.7900    89.8020 hc         1 UK1       0.062700
    102 H44        135.9970   111.0390    91.2400 hc         1 UK1       0.053200
    103 H45        136.0530   110.2220    89.6620 hc         1 UK1       0.053200
    104 H46        138.3890   110.1200    90.6320 hc         1 UK1       0.039700
    105 H47        138.2960   111.0200    89.1270 hc         1 UK1       0.039700
    106 H48        138.4510   111.8660    90.6670 hc         1 UK1       0.039700
    107 H49        132.3230   111.6950    88.6600 hn         1 UK1       0.484000
    108 O45        128.7130   108.8270    83.3030 o          1 UK1      -0.552000
    109 C21        134.9800   110.7350    85.2790 c          1 UK1       0.624300
    110 C56        122.0710   111.8460    81.4980 c3         1 UK1       0.081900
    111 H22        130.0070   116.7990    85.8590 h1         1 UK1       0.042700
    112 H39        121.6880   112.3140    80.5970 h1         1 UK1       0.058367
    113 H40        121.7600   110.8000    81.5410 h1         1 UK1       0.058367
    114 H41        121.6750   112.3680    82.3730 h1         1 UK1       0.058367
@<TRIPOS>BOND
     1     1     2 ar  
     2     1     6 ar  
     3     1     7 1   
     4     2     3 ar  
     5     2    63 1   
     6     3     4 ar  
     7     3    48 1   
     8     4     5 ar  
     9     4    64 1   
    10     5     6 ar  
    11     5     8 1   
    12     6    46 1   
    13     7    65 1   
    14     7    66 1   
    15     7    67 1   
    16     8    68 1   
    17     8    69 1   
    18     8    70 1   
    19     9    10 1   
    20     9    12 1   
    21     9    49 2   
    22    10    11 2   
    23    10    14 1   
    24    11    48 1   
    25    11    50 1   
    26    12    13 1   
    27    12    71 1   
    28    12    72 1   
    29    13    51 1   
    30    13    73 1   
    31    13    74 1   
    32    14    15 1   
    33    14    51 1   
    34    14    75 1   
    35    15    76 1   
    36    15    77 1   
    37    15    78 1   
    38    16    19 2   
    39    16    52 1   
    40    16   109 1   
    41    17    18 ar  
    42    17    21 ar  
    43    17    52 1   
    44    18    19 1   
    45    18    24 ar  
    46    19    79 1   
    47    20    41 1   
    48    20    44 1   
    49    20    52 1   
    50    20    80 1   
    51    21    22 ar  
    52    21    81 1   
    53    22    23 ar  
    54    22    82 1   
    55    23    24 ar  
    56    23    53 1   
    57    24    83 1   
    58    25    26 1   
    59    25    53 1   
    60    25    84 1   
    61    25   111 1   
    62    26    60 1   
    63    26    85 1   
    64    26    86 1   
    65    27    28 1   
    66    27    29 1   
    67    27    30 1   
    68    27    60 1   
    69    28    53 1   
    70    28    87 1   
    71    28    88 1   
    72    29    89 1   
    73    29    90 1   
    74    29    91 1   
    75    30    92 1   
    76    30    93 1   
    77    30    94 1   
    78    31    32 2   
    79    31    50 1   
    80    31    95 1   
    81    32    54 1   
    82    32    96 1   
    83    33    50 1   
    84    33    54 1   
    85    33   108 2   
    86    34    35 ar  
    87    34    39 ar  
    88    34    54 1   
    89    35    36 ar  
    90    35    47 1   
    91    36    37 ar  
    92    36    40 1   
    93    37    38 ar  
    94    37    56 1   
    95    38    39 ar  
    96    38    97 1   
    97    39    98 1   
    98    40    55 2   
    99    40    99 1   
   100    41    42 1   
   101    41   100 1   
   102    41   101 1   
   103    42    43 1   
   104    42   102 1   
   105    42   103 1   
   106    43   104 1   
   107    43   105 1   
   108    43   106 1   
   109    44    57 2   
   110    44    58 1   
   111    45    58 1   
   112    45    61 1   
   113    45    62 2   
   114    48    49 1   
   115    51   109 1   
   116    55    56 1   
   117    56   110 1   
   118    57    61 1   
   119    58   107 1   
   120    59   109 2   
   121   110   112 1   
   122   110   113 1   
   123   110   114 1   
@<TRIPOS>SUBSTRUCTURE
     1 UK1         1 TEMP              0 ****  ****    0 ROOT
