@<TRIPOS>MOLECULE
UK4
   70    75     1     0     0
SMALL
No Charge or Current Charge


@<TRIPOS>ATOM
      1 C29        126.6820   119.6720   152.5050 cy         1 UK4       0.140600
      2 C28        125.6870   119.1890   153.5980 cy         1 UK4      -0.129400
      3 C27        126.9660   118.9970   154.4730 cy         1 UK4       0.129300
      4 C26        127.6550   117.6110   154.5710 c3         1 UK4       0.074600
      5 C11        132.2810   116.3910   152.7370 c6         1 UK4       0.183800
      6 C10        133.6450   115.9410   153.3360 c6         1 UK4      -0.070400
      7 C14        129.2340   117.1230   152.5630 cc         1 UK4       0.352800
      8 C16        127.9420   115.7650   151.4800 ca         1 UK4       0.047400
      9 C17        127.3860   114.8920   150.5380 ca         1 UK4      -0.100000
     10 C18        126.1120   114.3420   150.7980 ca         1 UK4      -0.096000
     11 C19        125.4010   114.6610   151.9900 ca         1 UK4      -0.116600
     12 C02        135.6660   118.9640   158.2480 ca         1 UK4       0.192000
     13 C03        136.7630   118.1050   158.4740 ca         1 UK4      -0.122300
     14 C04        137.8140   117.8620   157.3900 c3         1 UK4       0.221900
     15 C06        136.9720   115.6770   156.6360 ca         1 UK4       0.574300
     16 C08        134.9550   115.4940   155.5070 ca         1 UK4       0.410300
     17 C09        133.7780   116.2390   154.8610 c6         1 UK4      -0.115000
     18 C23        125.9990   115.5510   152.9220 ca         1 UK4      -0.113000
     19 C24        127.2650   116.0780   152.6240 ca         1 UK4      -0.097200
     20 C31        131.2460   116.7450   154.9500 c6         1 UK4       0.183800
     21 C32        132.4290   115.9450   155.5700 c6         1 UK4      -0.070400
     22 C33        135.0050   114.0880   155.5590 ca         1 UK4      -0.194000
     23 C34        136.1000   113.4630   156.1710 ca         1 UK4      -0.049000
     24 C35        137.0990   114.2820   156.7160 ca         1 UK4      -0.194000
     25 C36        136.8810   117.4620   159.7240 ca         1 UK4      -0.079000
     26 C37        135.9150   117.6660   160.7250 ca         1 UK4      -0.094000
     27 C38        134.8190   118.5190   160.4900 ca         1 UK4       0.010000
     28 C39        133.8300   118.7260   161.5130 cg         1 UK4       0.323000
     29 C41        134.7000   119.1680   159.2460 ca         1 UK4      -0.118000
     30 N07        135.9250   116.2750   156.0300 nb         1 UK4      -0.757000
     31 N12        131.5710   117.3520   153.6240 n3         1 UK4      -0.758600
     32 N15        129.1740   116.4080   151.4150 nd         1 UK4      -0.594100
     33 N25        128.0630   116.9440   153.3160 na         1 UK4      -0.178600
     34 N40        133.0240   118.9030   162.3400 n1         1 UK4      -0.447000
     35 O21        123.5490   113.2970   151.4330 o          1 UK4      -0.718500
     36 O22        123.4490   114.3620   153.2950 o          1 UK4      -0.718500
     37 O30        127.6380   119.9680   153.5860 oq         1 UK4      -0.464000
     38 H1         126.3810   120.5700   151.9530 h1         1 UK4       0.048200
     39 H2         127.0490   118.8910   151.8300 h1         1 UK4       0.048200
     40 H3         125.0070   119.9670   153.9610 hc         1 UK4       0.078700
     41 H4         125.1130   118.2880   153.3620 hc         1 UK4       0.078700
     42 H5         126.8490   119.4120   155.4810 h1         1 UK4       0.052700
     43 H6         126.9820   116.9450   155.1230 h1         1 UK4       0.063700
     44 H7         128.5450   117.7380   155.1980 h1         1 UK4       0.063700
     45 H10        131.6550   115.4990   152.5800 h1         1 UK4       0.041950
     46 H11        132.4590   116.8320   151.7450 h1         1 UK4       0.041950
     47 H12        133.7750   114.8690   153.1380 hc         1 UK4       0.041200
     48 H13        134.4620   116.4460   152.8030 hc         1 UK4       0.041200
     49 H14        127.9240   114.6440   149.6270 ha         1 UK4       0.104000
     50 H15        125.6770   113.6630   150.0670 ha         1 UK4       0.131000
     51 H16        138.7640   118.3000   157.7230 h1         1 UK4       0.073700
     52 H17        137.5410   118.3630   156.4520 h1         1 UK4       0.073700
     53 H18        133.9620   117.3180   154.9650 hc         1 UK4       0.084700
     54 H19        125.4870   115.8170   153.8430 ha         1 UK4       0.132000
     55 H20        130.9580   117.5420   155.6520 h1         1 UK4       0.041950
     56 H21        130.3820   116.0700   154.8680 h1         1 UK4       0.041950
     57 H22        132.2030   114.8720   155.5010 hc         1 UK4       0.041200
     58 H23        132.5060   116.1740   156.6410 hc         1 UK4       0.041200
     59 H24        134.2050   113.4930   155.1290 ha         1 UK4       0.133000
     60 H25        136.1710   112.3790   156.2250 ha         1 UK4       0.117000
     61 H26        137.9660   113.8490   157.2040 ha         1 UK4       0.131000
     62 H27        137.7210   116.7980   159.9180 ha         1 UK4       0.129000
     63 H28        136.0190   117.1590   161.6820 ha         1 UK4       0.128000
     64 H29        133.8630   119.8330   159.0500 ha         1 UK4       0.146000
     65 C13        130.4000   118.0230   152.9700 c3         1 UK4       0.180500
     66 H8         130.7380   118.5450   152.0660 h1         1 UK4       0.070200
     67 H9         130.0120   118.8060   153.6350 h1         1 UK4       0.070200
     68 C20        124.0280   114.0610   152.2600 c          1 UK4       0.712600
     69 O05        137.9750   116.4420   157.1840 os         1 UK4      -0.466300
     70 F01        135.5300   119.6090   157.0670 f          1 UK4      -0.169000
@<TRIPOS>BOND
     1     1     2 1   
     2     1    37 1   
     3     1    38 1   
     4     1    39 1   
     5     2     3 1   
     6     2    40 1   
     7     2    41 1   
     8     3     4 1   
     9     3    37 1   
    10     3    42 1   
    11     4    33 1   
    12     4    43 1   
    13     4    44 1   
    14     5     6 1   
    15     5    31 1   
    16     5    45 1   
    17     5    46 1   
    18     6    17 1   
    19     6    47 1   
    20     6    48 1   
    21     7    32 2   
    22     7    33 1   
    23     7    65 1   
    24     8     9 ar  
    25     8    19 ar  
    26     8    32 1   
    27     9    10 ar  
    28     9    49 1   
    29    10    11 ar  
    30    10    50 1   
    31    11    18 ar  
    32    11    68 1   
    33    12    13 ar  
    34    12    29 ar  
    35    12    70 1   
    36    13    14 1   
    37    13    25 ar  
    38    14    51 1   
    39    14    52 1   
    40    14    69 1   
    41    15    24 ar  
    42    15    30 ar  
    43    15    69 1   
    44    16    17 1   
    45    16    22 ar  
    46    16    30 ar  
    47    17    21 1   
    48    17    53 1   
    49    18    19 ar  
    50    18    54 1   
    51    19    33 1   
    52    20    21 1   
    53    20    31 1   
    54    20    55 1   
    55    20    56 1   
    56    21    57 1   
    57    21    58 1   
    58    22    23 ar  
    59    22    59 1   
    60    23    24 ar  
    61    23    60 1   
    62    24    61 1   
    63    25    26 ar  
    64    25    62 1   
    65    26    27 ar  
    66    26    63 1   
    67    27    28 1   
    68    27    29 ar  
    69    28    34 3   
    70    29    64 1   
    71    31    65 1   
    72    35    68 1   
    73    36    68 1   
    74    65    66 1   
    75    65    67 1   
@<TRIPOS>SUBSTRUCTURE
     1 UK4         1 TEMP              0 ****  ****    0 ROOT
