@<TRIPOS>MOLECULE
UK4
   70    75     1     0     0
SMALL
abcg2


@<TRIPOS>ATOM
      1 C29        126.9050   120.1030   153.2890 cy         1 UK4       0.140600
      2 C28        126.0250   118.9980   153.8730 cy         1 UK4      -0.129400
      3 C27        127.2010   118.7670   154.8320 cy         1 UK4       0.129300
      4 C26        127.9030   117.4230   154.8560 c3         1 UK4       0.074600
      5 C11        132.2540   116.2780   152.8730 c6         1 UK4       0.183800
      6 C10        133.2600   115.3600   153.5730 c6         1 UK4      -0.070400
      7 C14        129.3570   117.2240   152.7930 cc         1 UK4       0.352800
      8 C16        128.1270   115.9950   151.5490 ca         1 UK4       0.047400
      9 C17        127.5610   115.2370   150.5230 ca         1 UK4      -0.100000
     10 C18        126.3470   114.6230   150.7610 ca         1 UK4      -0.096000
     11 C19        125.6750   114.7390   151.9930 ca         1 UK4      -0.116600
     12 C02        135.4900   119.1290   157.7400 ca         1 UK4       0.192000
     13 C03        136.3520   118.1080   158.1120 ca         1 UK4      -0.122300
     14 C04        137.5680   117.7640   157.2930 c3         1 UK4       0.221900
     15 C06        136.9360   115.5810   156.6580 ca         1 UK4       0.574300
     16 C08        135.0330   115.3520   155.4080 ca         1 UK4       0.410300
     17 C09        133.8790   116.0710   154.7670 c6         1 UK4      -0.115000
     18 C23        126.2330   115.4960   153.0150 ca         1 UK4      -0.113000
     19 C24        127.4530   116.1150   152.7710 ca         1 UK4      -0.097200
     20 C31        131.4210   116.6020   155.1210 c6         1 UK4       0.183800
     21 C32        132.7690   116.3320   155.8050 c6         1 UK4      -0.070400
     22 C33        135.1560   113.9710   155.4120 ca         1 UK4      -0.194000
     23 C34        136.2370   113.4000   156.0790 ca         1 UK4      -0.049000
     24 C35        137.1550   114.2040   156.7210 ca         1 UK4      -0.194000
     25 C36        136.0510   117.4080   159.2770 ca         1 UK4      -0.079000
     26 C37        134.9250   117.7010   160.0240 ca         1 UK4      -0.094000
     27 C38        134.0760   118.7230   159.6070 ca         1 UK4       0.010000
     28 C39        132.9050   119.0260   160.3640 cg         1 UK4       0.323000
     29 C41        134.3580   119.4540   158.4560 ca         1 UK4      -0.118000
     30 N07        135.9250   116.1310   156.0280 nb         1 UK4      -0.757000
     31 N12        131.6400   117.1950   153.8200 n3         1 UK4      -0.758600
     32 N15        129.3030   116.6980   151.5950 nd         1 UK4      -0.594100
     33 N25        128.2600   116.9140   153.5510 na         1 UK4      -0.178600
     34 N40        131.9610   119.2640   160.9800 n1         1 UK4      -0.447000
     35 O21        123.8710   113.4080   151.2420 o          1 UK4      -0.718500
     36 O22        123.8200   114.1650   153.3390 o          1 UK4      -0.718500
     37 O30        127.9740   119.7900   154.1940 oq         1 UK4      -0.464000
     38 H1         126.5310   121.1210   153.4270 h1         1 UK4       0.048200
     39 H2         127.1970   119.9750   152.2440 h1         1 UK4       0.048200
     40 H3         125.1050   119.3290   154.3510 hc         1 UK4       0.078700
     41 H4         125.7950   118.1830   153.1910 hc         1 UK4       0.078700
     42 H5         126.9730   119.0260   155.8730 h1         1 UK4       0.052700
     43 H6         127.2550   116.6950   155.3460 h1         1 UK4       0.063700
     44 H7         128.7990   117.4930   155.4730 h1         1 UK4       0.063700
     45 H10        131.5180   115.6540   152.3490 h1         1 UK4       0.041950
     46 H11        132.7600   116.8740   152.1070 h1         1 UK4       0.041950
     47 H12        132.7550   114.4490   153.9090 hc         1 UK4       0.041200
     48 H13        134.0200   115.0470   152.8550 hc         1 UK4       0.041200
     49 H14        128.0640   115.1340   149.5700 ha         1 UK4       0.104000
     50 H15        125.8900   114.0310   149.9800 ha         1 UK4       0.131000
     51 H16        138.4550   118.2130   157.7440 h1         1 UK4       0.073700
     52 H17        137.4810   118.1480   156.2770 h1         1 UK4       0.073700
     53 H18        134.2640   117.0380   154.4310 hc         1 UK4       0.084700
     54 H19        125.7180   115.5910   153.9620 ha         1 UK4       0.132000
     55 H20        130.8510   117.3010   155.7340 h1         1 UK4       0.041950
     56 H21        130.8260   115.6750   155.0710 h1         1 UK4       0.041950
     57 H22        132.6650   115.4680   156.4670 hc         1 UK4       0.041200
     58 H23        133.0540   117.1780   156.4340 hc         1 UK4       0.041200
     59 H24        134.4290   113.3440   154.9140 ha         1 UK4       0.133000
     60 H25        136.3570   112.3240   156.0970 ha         1 UK4       0.117000
     61 H26        138.0050   113.7960   157.2500 ha         1 UK4       0.131000
     62 H27        136.7010   116.6070   159.6040 ha         1 UK4       0.129000
     63 H28        134.7050   117.1390   160.9220 ha         1 UK4       0.128000
     64 H29        133.7080   120.2520   158.1210 ha         1 UK4       0.146000
     65 C13        130.5580   117.9910   153.2810 c3         1 UK4       0.180500
     66 H8         130.9400   118.5440   152.4200 h1         1 UK4       0.070200
     67 H9         130.2660   118.7330   154.0250 h1         1 UK4       0.070200
     68 C20        124.3350   114.0400   152.2110 c          1 UK4       0.712600
     69 O05        137.8230   116.3720   157.2880 os         1 UK4      -0.466300
     70 F01        135.7610   119.8340   156.6340 f          1 UK4      -0.169000
@<TRIPOS>BOND
     1     1     2 1   
     2     1    37 1   
     3     1    38 1   
     4     1    39 1   
     5     2     3 1   
     6     2    40 1   
     7     2    41 1   
     8     3     4 1   
     9     3    37 1   
    10     3    42 1   
    11     4    33 1   
    12     4    43 1   
    13     4    44 1   
    14     5     6 1   
    15     5    31 1   
    16     5    45 1   
    17     5    46 1   
    18     6    17 1   
    19     6    47 1   
    20     6    48 1   
    21     7    32 2   
    22     7    33 1   
    23     7    65 1   
    24     8     9 ar  
    25     8    19 ar  
    26     8    32 1   
    27     9    10 ar  
    28     9    49 1   
    29    10    11 ar  
    30    10    50 1   
    31    11    18 ar  
    32    11    68 1   
    33    12    13 ar  
    34    12    29 ar  
    35    12    70 1   
    36    13    14 1   
    37    13    25 ar  
    38    14    51 1   
    39    14    52 1   
    40    14    69 1   
    41    15    24 ar  
    42    15    30 ar  
    43    15    69 1   
    44    16    17 1   
    45    16    22 ar  
    46    16    30 ar  
    47    17    21 1   
    48    17    53 1   
    49    18    19 ar  
    50    18    54 1   
    51    19    33 1   
    52    20    21 1   
    53    20    31 1   
    54    20    55 1   
    55    20    56 1   
    56    21    57 1   
    57    21    58 1   
    58    22    23 ar  
    59    22    59 1   
    60    23    24 ar  
    61    23    60 1   
    62    24    61 1   
    63    25    26 ar  
    64    25    62 1   
    65    26    27 ar  
    66    26    63 1   
    67    27    28 1   
    68    27    29 ar  
    69    28    34 3   
    70    29    64 1   
    71    31    65 1   
    72    35    68 1   
    73    36    68 1   
    74    65    66 1   
    75    65    67 1   
@<TRIPOS>SUBSTRUCTURE
     1 UK4         1 TEMP              0 ****  ****    0 ROOT
