@<TRIPOS>MOLECULE
UK5
   19    20     1     0     0
SMALL
No Charge or Current Charge


@<TRIPOS>ATOM
      1 C2          28.9080   -10.5200   -13.4000 ca         1 UK5      -0.204600
      2 C3          29.2980   -10.1070   -12.1070 ca         1 UK5      -0.026000
      3 C4          28.8040   -10.7720   -10.9760 ca         1 UK5      -0.151000
      4 C5          27.9200   -11.8470   -11.1330 ca         1 UK5      -0.056000
      5 C6          29.4110    -9.8160   -14.5950 c          1 UK5       0.591900
      6 O1          30.1970    -8.8800   -14.5350 o          1 UK5      -0.560100
      7 C7          28.8880   -10.3080   -15.8560 cc         1 UK5      -0.380200
      8 C8          28.0220   -11.3690   -16.0170 cd         1 UK5       0.070000
      9 N           27.6200   -12.0630   -14.8570 na         1 UK5      -0.452700
     10 O           26.7830   -13.1890   -15.0120 oh         1 UK5      -0.366300
     11 C1          28.0260   -11.5990   -13.5770 ca         1 UK5       0.319000
     12 C           27.5370   -12.2540   -12.4210 ca         1 UK5      -0.162000
     13 H1          29.9820    -9.2700   -11.9760 ha         1 UK5       0.140000
     14 H2          29.1040   -10.4530    -9.9810 ha         1 UK5       0.122000
     15 H3          27.5310   -12.3650   -10.2590 ha         1 UK5       0.116000
     16 H4          29.2440    -9.7620   -16.7210 ha         1 UK5       0.214000
     17 H5          27.6500   -11.7180   -16.9800 h4         1 UK5       0.211000
     18 H6          27.3590   -13.9850   -15.0970 ho         1 UK5       0.451000
     19 H7          26.8490   -13.0890   -12.5120 ha         1 UK5       0.127000
@<TRIPOS>BOND
     1     1     2 ar  
     2     1     5 1   
     3     1    11 ar  
     4     2     3 ar  
     5     2    13 1   
     6     3     4 ar  
     7     3    14 1   
     8     4    12 ar  
     9     4    15 1   
    10     5     6 2   
    11     5     7 1   
    12     7     8 2   
    13     7    16 1   
    14     8     9 1   
    15     8    17 1   
    16     9    10 1   
    17     9    11 1   
    18    10    18 1   
    19    11    12 ar  
    20    12    19 1   
@<TRIPOS>SUBSTRUCTURE
     1 UK5         1 TEMP              0 ****  ****    0 ROOT
