@<TRIPOS>MOLECULE
UK5
   19    20     1     0     0
SMALL
abcg2


@<TRIPOS>ATOM
      1 C2          28.8860   -10.5280   -13.4250 ca         1 UK5      -0.204600
      2 C3          29.2610   -10.1260   -12.1370 ca         1 UK5      -0.026000
      3 C4          28.7970   -10.7860   -11.0230 ca         1 UK5      -0.151000
      4 C5          27.9340   -11.8760   -11.1760 ca         1 UK5      -0.056000
      5 C6          29.3920    -9.8010   -14.6020 c          1 UK5       0.591900
      6 O1          30.1480    -8.8360   -14.4970 o          1 UK5      -0.560100
      7 C7          28.9240   -10.3100   -15.8640 cc         1 UK5      -0.380200
      8 C8          28.0900   -11.3770   -15.9290 cd         1 UK5       0.070000
      9 N           27.6660   -12.0210   -14.8260 na         1 UK5      -0.452700
     10 O           26.7730   -13.0340   -14.9780 oh         1 UK5      -0.366300
     11 C1          28.0210   -11.6280   -13.5580 ca         1 UK5       0.319000
     12 C           27.5420   -12.3000   -12.4260 ca         1 UK5      -0.162000
     13 H1          29.9270    -9.2800   -12.0320 ha         1 UK5       0.140000
     14 H2          29.0940   -10.4660   -10.0330 ha         1 UK5       0.122000
     15 H3          27.5620   -12.3960   -10.3030 ha         1 UK5       0.116000
     16 H4          29.2360    -9.8360   -16.7840 ha         1 UK5       0.214000
     17 H5          27.7230   -11.7710   -16.8670 h4         1 UK5       0.211000
     18 H6          27.2870   -13.8550   -15.0250 ho         1 UK5       0.451000
     19 H7          26.8710   -13.1400   -12.5260 ha         1 UK5       0.127000
@<TRIPOS>BOND
     1     1     2 ar  
     2     1     5 1   
     3     1    11 ar  
     4     2     3 ar  
     5     2    13 1   
     6     3     4 ar  
     7     3    14 1   
     8     4    12 ar  
     9     4    15 1   
    10     5     6 2   
    11     5     7 1   
    12     7     8 2   
    13     7    16 1   
    14     8     9 1   
    15     8    17 1   
    16     9    10 1   
    17     9    11 1   
    18    10    18 1   
    19    11    12 ar  
    20    12    19 1   
@<TRIPOS>SUBSTRUCTURE
     1 UK5         1 TEMP              0 ****  ****    0 ROOT
