@<TRIPOS>MOLECULE
UK6
   58    59     1     0     0
SMALL
No Charge or Current Charge


@<TRIPOS>ATOM
      1 C1          10.5220    17.1330    24.4480 c6         1 UK6      -0.019000
      2 C2           9.1860    16.3570    24.7120 c6         1 UK6      -0.071400
      3 C3           7.9800    17.2670    25.0740 c6         1 UK6      -0.072400
      4 C4           8.2710    18.1540    26.3090 c6         1 UK6      -0.069400
      5 C5           9.5440    19.0460    26.1580 c6         1 UK6      -0.033000
      6 C6          10.7660    18.0550    25.7620 c6         1 UK6      -0.043700
      7 C7          12.1520    18.7550    25.6790 c6         1 UK6      -0.068400
      8 C8          13.2920    17.7100    25.5450 c6         1 UK6      -0.103400
      9 C9          13.1650    16.7690    24.3050 c6         1 UK6       0.189000
     10 O1          14.1560    15.7480    24.4670 oh         1 UK6      -0.663000
     11 C           10.3750    17.9470    23.0770 c3         1 UK6      -0.080100
     12 O           10.3710    11.3270    23.2690 oh         1 UK6      -0.656000
     13 C10         11.7270    16.0650    24.3180 c6         1 UK6      -0.075700
     14 C11         11.5480    14.9690    23.1940 c3         1 UK6      -0.068400
     15 C12         11.1070    13.5730    23.7160 c3         1 UK6      -0.102400
     16 C13         10.8020    12.5120    22.6190 c3         1 UK6       0.218200
     17 C14         12.0560    12.1550    21.7840 c3         1 UK6      -0.076100
     18 C15          9.6470    12.9360    21.7300 c2         1 UK6      -0.250200
     19 C16          8.3860    13.1870    22.1310 c2         1 UK6      -0.309000
     20 C17         13.5840    17.5520    22.9950 c3         1 UK6      -0.077100
     21 C18          9.7580    19.7720    27.5550 c3         1 UK6      -0.084100
     22 C19          9.2520    20.2340    25.1500 c3         1 UK6      -0.084100
     23 H1           8.9150    15.7560    23.8340 hc         1 UK6       0.039200
     24 H2           9.3320    15.6410    25.5330 hc         1 UK6       0.039200
     25 H3           7.6780    17.8880    24.2220 hc         1 UK6       0.039700
     26 H4           7.1100    16.6330    25.2910 hc         1 UK6       0.039700
     27 H5           7.3930    18.7800    26.5180 hc         1 UK6       0.037700
     28 H6           8.3860    17.5000    27.1850 hc         1 UK6       0.037700
     29 H7          10.8410    17.3530    26.6050 hc         1 UK6       0.037700
     30 H8          12.3340    19.3390    26.5900 hc         1 UK6       0.043700
     31 H9          12.1880    19.4750    24.8520 hc         1 UK6       0.043700
     32 H10         13.3060    17.1050    26.4620 hc         1 UK6       0.043700
     33 H11         14.2590    18.2310    25.5200 hc         1 UK6       0.043700
     34 H12         13.8680    15.2030    25.2290 ho         1 UK6       0.436000
     35 H13          9.3320    18.1130    22.7900 hc         1 UK6       0.033367
     36 H14         10.8390    18.9360    23.1340 hc         1 UK6       0.033367
     37 H15         10.8350    17.4420    22.2230 hc         1 UK6       0.033367
     38 H17         11.7080    15.4940    25.2570 hc         1 UK6       0.035700
     39 H18         12.4860    14.8380    22.6440 hc         1 UK6       0.050200
     40 H19         10.8210    15.2910    22.4420 hc         1 UK6       0.050200
     41 H20         10.2190    13.6960    24.3460 hc         1 UK6       0.042200
     42 H21         11.8940    13.1870    24.3760 hc         1 UK6       0.042200
     43 H22         12.8850    11.8530    22.4350 hc         1 UK6       0.045033
     44 H23         11.8420    11.3260    21.0990 hc         1 UK6       0.045033
     45 H24         12.3870    13.0080    21.1820 hc         1 UK6       0.045033
     46 H25          9.9060    13.0390    20.6740 ha         1 UK6       0.171000
     47 H26          7.6150    13.4920    21.4210 ha         1 UK6       0.164000
     48 H27          8.0810    13.1120    23.1760 ha         1 UK6       0.164000
     49 H28         14.6490    17.8120    23.0180 hc         1 UK6       0.042367
     50 H29         13.4170    16.9510    22.0940 hc         1 UK6       0.042367
     51 H30         13.0410    18.4920    22.8730 hc         1 UK6       0.042367
     52 H31         10.0130    19.0510    28.3410 hc         1 UK6       0.032700
     53 H32         10.5660    20.5110    27.5110 hc         1 UK6       0.032700
     54 H33          8.8540    20.3020    27.8790 hc         1 UK6       0.032700
     55 H34          8.4820    20.9100    25.5420 hc         1 UK6       0.032700
     56 H35         10.1510    20.8360    24.9720 hc         1 UK6       0.032700
     57 H36          8.8870    19.8900    24.1800 hc         1 UK6       0.032700
     58 H16          9.4140    11.2690    23.0670 ho         1 UK6       0.440000
@<TRIPOS>BOND
     1     1     2 1   
     2     1     6 1   
     3     1    11 1   
     4     1    13 1   
     5     2     3 1   
     6     2    23 1   
     7     2    24 1   
     8     3     4 1   
     9     3    25 1   
    10     3    26 1   
    11     4     5 1   
    12     4    27 1   
    13     4    28 1   
    14     5     6 1   
    15     5    21 1   
    16     5    22 1   
    17     6     7 1   
    18     6    29 1   
    19     7     8 1   
    20     7    30 1   
    21     7    31 1   
    22     8     9 1   
    23     8    32 1   
    24     8    33 1   
    25     9    10 1   
    26     9    13 1   
    27     9    20 1   
    28    10    34 1   
    29    11    35 1   
    30    11    36 1   
    31    11    37 1   
    32    12    16 1   
    33    12    58 1   
    34    13    14 1   
    35    13    38 1   
    36    14    15 1   
    37    14    39 1   
    38    14    40 1   
    39    15    16 1   
    40    15    41 1   
    41    15    42 1   
    42    16    17 1   
    43    16    18 1   
    44    17    43 1   
    45    17    44 1   
    46    17    45 1   
    47    18    19 2   
    48    18    46 1   
    49    19    47 1   
    50    19    48 1   
    51    20    49 1   
    52    20    50 1   
    53    20    51 1   
    54    21    52 1   
    55    21    53 1   
    56    21    54 1   
    57    22    55 1   
    58    22    56 1   
    59    22    57 1   
@<TRIPOS>SUBSTRUCTURE
     1 UK6         1 TEMP              0 ****  ****    0 ROOT
