@<TRIPOS>MOLECULE
UK6
   58    59     1     0     0
SMALL
abcg2


@<TRIPOS>ATOM
      1 C1          10.4950    17.2160    24.4050 c6         1 UK6      -0.019000
      2 C2           9.1700    16.4600    24.6190 c6         1 UK6      -0.071400
      3 C3           8.0070    17.3720    24.9840 c6         1 UK6      -0.072400
      4 C4           8.3230    18.1830    26.2290 c6         1 UK6      -0.069400
      5 C5           9.6070    19.0200    26.1170 c6         1 UK6      -0.033000
      6 C6          10.7590    18.0840    25.6680 c6         1 UK6      -0.043700
      7 C7          12.1270    18.7580    25.5810 c6         1 UK6      -0.068400
      8 C8          13.2320    17.7140    25.5190 c6         1 UK6      -0.103400
      9 C9          13.0830    16.7430    24.3430 c6         1 UK6       0.189000
     10 O1          14.0050    15.6650    24.5070 oh         1 UK6      -0.663000
     11 C           10.3870    18.0360    23.1070 c3         1 UK6      -0.080100
     12 O           10.4560    11.4350    23.4210 oh         1 UK6      -0.656000
     13 C10         11.6450    16.1620    24.3330 c6         1 UK6      -0.075700
     14 C11         11.4640    15.1000    23.2260 c3         1 UK6      -0.068400
     15 C12         11.0320    13.7430    23.7740 c3         1 UK6      -0.102400
     16 C13         10.7320    12.6420    22.7380 c3         1 UK6       0.218200
     17 C14         11.9500    12.3620    21.8600 c3         1 UK6      -0.076100
     18 C15          9.5780    13.0500    21.8560 c2         1 UK6      -0.250200
     19 C16          8.4400    12.3830    21.7030 c2         1 UK6      -0.309000
     20 C17         13.5170    17.4140    23.0450 c3         1 UK6      -0.077100
     21 C18          9.9110    19.5560    27.5230 c3         1 UK6      -0.084100
     22 C19          9.3820    20.2300    25.2060 c3         1 UK6      -0.084100
     23 H1           8.9150    15.8800    23.7260 hc         1 UK6       0.039200
     24 H2           9.3070    15.7350    25.4290 hc         1 UK6       0.039200
     25 H3           7.7560    18.0330    24.1500 hc         1 UK6       0.039700
     26 H4           7.1140    16.7660    25.1570 hc         1 UK6       0.039700
     27 H5           7.4840    18.8400    26.4840 hc         1 UK6       0.037700
     28 H6           8.4390    17.4920    27.0720 hc         1 UK6       0.037700
     29 H7          10.8390    17.3540    26.4890 hc         1 UK6       0.037700
     30 H8          12.2970    19.3950    26.4500 hc         1 UK6       0.043700
     31 H9          12.1840    19.4210    24.7140 hc         1 UK6       0.043700
     32 H10         13.2100    17.1370    26.4520 hc         1 UK6       0.043700
     33 H11         14.2160    18.1920    25.4740 hc         1 UK6       0.043700
     34 H12         13.8000    15.2250    25.3390 ho         1 UK6       0.436000
     35 H13          9.3630    18.3520    22.9130 hc         1 UK6       0.033367
     36 H14         10.9940    18.9390    23.1130 hc         1 UK6       0.033367
     37 H15         10.6960    17.4530    22.2380 hc         1 UK6       0.033367
     38 H17         11.5760    15.6250    25.2930 hc         1 UK6       0.035700
     39 H18         12.4020    14.9660    22.6850 hc         1 UK6       0.050200
     40 H19         10.7490    15.4470    22.4780 hc         1 UK6       0.050200
     41 H20         10.1410    13.8660    24.3990 hc         1 UK6       0.042200
     42 H21         11.8210    13.3660    24.4340 hc         1 UK6       0.042200
     43 H22         12.8300    12.1520    22.4710 hc         1 UK6       0.045033
     44 H23         11.7660    11.5050    21.2100 hc         1 UK6       0.045033
     45 H24         12.1810    13.2130    21.2210 hc         1 UK6       0.045033
     46 H25          9.7190    13.9690    21.2950 ha         1 UK6       0.171000
     47 H26          7.6660    12.7520    21.0430 ha         1 UK6       0.164000
     48 H27          8.2320    11.4510    22.2130 ha         1 UK6       0.164000
     49 H28         14.5850    17.6350    23.0920 hc         1 UK6       0.042367
     50 H29         13.3480    16.7800    22.1740 hc         1 UK6       0.042367
     51 H30         13.0020    18.3540    22.8690 hc         1 UK6       0.042367
     52 H31         10.1590    18.7460    28.2130 hc         1 UK6       0.032700
     53 H32         10.7390    20.2660    27.5320 hc         1 UK6       0.032700
     54 H33          9.0380    20.0750    27.9230 hc         1 UK6       0.032700
     55 H34          8.6600    20.9070    25.6670 hc         1 UK6       0.032700
     56 H35         10.3030    20.7940    25.0520 hc         1 UK6       0.032700
     57 H36          8.9900    19.9650    24.2260 hc         1 UK6       0.032700
     58 H16          9.7540    11.6010    24.0610 ho         1 UK6       0.440000
@<TRIPOS>BOND
     1     1     2 1   
     2     1     6 1   
     3     1    11 1   
     4     1    13 1   
     5     2     3 1   
     6     2    23 1   
     7     2    24 1   
     8     3     4 1   
     9     3    25 1   
    10     3    26 1   
    11     4     5 1   
    12     4    27 1   
    13     4    28 1   
    14     5     6 1   
    15     5    21 1   
    16     5    22 1   
    17     6     7 1   
    18     6    29 1   
    19     7     8 1   
    20     7    30 1   
    21     7    31 1   
    22     8     9 1   
    23     8    32 1   
    24     8    33 1   
    25     9    10 1   
    26     9    13 1   
    27     9    20 1   
    28    10    34 1   
    29    11    35 1   
    30    11    36 1   
    31    11    37 1   
    32    12    16 1   
    33    12    58 1   
    34    13    14 1   
    35    13    38 1   
    36    14    15 1   
    37    14    39 1   
    38    14    40 1   
    39    15    16 1   
    40    15    41 1   
    41    15    42 1   
    42    16    17 1   
    43    16    18 1   
    44    17    43 1   
    45    17    44 1   
    46    17    45 1   
    47    18    19 2   
    48    18    46 1   
    49    19    47 1   
    50    19    48 1   
    51    20    49 1   
    52    20    50 1   
    53    20    51 1   
    54    21    52 1   
    55    21    53 1   
    56    21    54 1   
    57    22    55 1   
    58    22    56 1   
    59    22    57 1   
@<TRIPOS>SUBSTRUCTURE
     1 UK6         1 TEMP              0 ****  ****    0 ROOT
