@<TRIPOS>MOLECULE
UK7
   42    44     1     0     0
SMALL
No Charge or Current Charge


@<TRIPOS>ATOM
      1 C02         17.6110   -35.0250   -21.1750 cs         1 UK7       0.412000
      2 C03         18.3000   -35.1040   -22.5250 ca         1 UK7      -0.126600
      3 C04         19.1890   -34.0940   -22.9720 ca         1 UK7      -0.091000
      4 C05         19.8240   -34.1790   -24.2280 ca         1 UK7       0.000200
      5 C06         20.7390   -33.1260   -24.6680 cc         1 UK7      -0.099400
      6 C07         21.9420   -33.4180   -25.2970 cd         1 UK7      -0.146100
      7 C10         24.0120   -31.9420   -27.6300 c3         1 UK7       0.142600
      8 C12         21.8210   -31.1820   -25.0180 ca         1 UK7      -0.036200
      9 C13         20.6680   -31.7040   -24.4920 ca         1 UK7      -0.082800
     10 C14         19.6620   -30.8910   -23.9500 ca         1 UK7      -0.076000
     11 C15         19.8760   -29.4980   -23.9340 ca         1 UK7      -0.108000
     12 C16         21.0680   -28.9430   -24.4640 ca         1 UK7      -0.073300
     13 C17         21.2870   -27.4360   -24.4400 c3         1 UK7       0.198100
     14 C19         22.0520   -29.7960   -25.0190 ca         1 UK7      -0.109000
     15 C20         19.5780   -35.2930   -25.0500 ca         1 UK7      -0.091000
     16 C21         18.7010   -36.3020   -24.6260 ca         1 UK7      -0.116000
     17 C22         18.0660   -36.2090   -23.3770 ca         1 UK7      -0.058000
     18 N01         17.8690   -33.9550   -20.3990 nt         1 UK7      -0.498000
     19 N08         22.6270   -32.2020   -25.5210 na         1 UK7      -0.077700
     20 N18         20.6250   -26.7690   -25.5770 n8         1 UK7      -0.996200
     21 O11         23.4020   -30.7330   -28.1070 oh         1 UK7      -0.649000
     22 S23         16.5530   -36.1850   -20.5980 s          1 UK7      -0.581400
     23 H1          19.4130   -33.2380   -22.3440 ha         1 UK7       0.116000
     24 H2          22.3660   -34.3790   -25.5700 h4         1 UK7       0.209000
     25 H3          24.5950   -32.8640   -25.7670 h1         1 UK7       0.065700
     26 H4          24.4340   -31.1110   -25.6630 h1         1 UK7       0.065700
     27 H5          23.4980   -32.8210   -28.0420 h1         1 UK7       0.026700
     28 H6          25.0590   -31.9850   -27.9580 h1         1 UK7       0.026700
     29 H7          18.7390   -31.3150   -23.5630 ha         1 UK7       0.117000
     30 H8          19.1130   -28.8430   -23.5190 ha         1 UK7       0.125000
     31 H9          22.3640   -27.2160   -24.4800 h1         1 UK7       0.031700
     32 H10         20.8900   -27.0180   -23.5040 h1         1 UK7       0.031700
     33 H11         22.9630   -29.3810   -25.4430 ha         1 UK7       0.115000
     34 H12         20.0580   -35.3730   -26.0220 ha         1 UK7       0.112000
     35 H13         18.5110   -37.1590   -25.2680 ha         1 UK7       0.118000
     36 H14         17.3920   -37.0070   -23.0770 ha         1 UK7       0.141000
     37 H15         17.4260   -33.8730   -19.4950 hn         1 UK7       0.324500
     38 H16         18.5020   -33.2330   -20.7090 hn         1 UK7       0.324500
     39 H17         20.8810   -25.7750   -25.5730 hn         1 UK7       0.395000
     40 H18         21.0380   -27.1250   -26.4470 hn         1 UK7       0.395000
     41 H20         23.4290   -30.7640   -29.0890 ho         1 UK7       0.449000
     42 C09         23.9790   -32.0140   -26.0850 c3         1 UK7       0.076600
@<TRIPOS>BOND
     1     1     2 1   
     2     1    18 1   
     3     1    22 2   
     4     2     3 ar  
     5     2    17 ar  
     6     3     4 ar  
     7     3    23 1   
     8     4     5 1   
     9     4    15 ar  
    10     5     6 2   
    11     5     9 1   
    12     6    19 1   
    13     6    24 1   
    14     7    21 1   
    15     7    27 1   
    16     7    28 1   
    17     7    42 1   
    18     8     9 ar  
    19     8    14 ar  
    20     8    19 1   
    21     9    10 ar  
    22    10    11 ar  
    23    10    29 1   
    24    11    12 ar  
    25    11    30 1   
    26    12    13 1   
    27    12    14 ar  
    28    13    20 1   
    29    13    31 1   
    30    13    32 1   
    31    14    33 1   
    32    15    16 ar  
    33    15    34 1   
    34    16    17 ar  
    35    16    35 1   
    36    17    36 1   
    37    18    37 1   
    38    18    38 1   
    39    19    42 1   
    40    20    39 1   
    41    20    40 1   
    42    21    41 1   
    43    25    42 1   
    44    26    42 1   
@<TRIPOS>SUBSTRUCTURE
     1 UK7         1 TEMP              0 ****  ****    0 ROOT
