@<TRIPOS>MOLECULE
UK7
   42    44     1     0     0
SMALL
bcc


@<TRIPOS>ATOM
      1 C02         17.4090   -34.7940   -21.4350 cs         1 UK7       0.479000
      2 C03         18.2310   -34.9810   -22.6560 ca         1 UK7      -0.126600
      3 C04         19.1510   -34.0080   -23.0430 ca         1 UK7      -0.109000
      4 C05         19.9220   -34.1570   -24.1970 ca         1 UK7       0.000200
      5 C06         20.8710   -33.1230   -24.6050 cc         1 UK7      -0.099400
      6 C07         22.0880   -33.3420   -25.1950 cd         1 UK7      -0.096100
      7 C10         23.9020   -32.0960   -27.5960 c3         1 UK7       0.119400
      8 C12         21.9300   -31.1360   -25.0010 ca         1 UK7      -0.036200
      9 C13         20.7510   -31.6970   -24.4700 ca         1 UK7      -0.082800
     10 C14         19.7560   -30.8320   -23.9930 ca         1 UK7      -0.094000
     11 C15         19.9700   -29.4720   -24.0320 ca         1 UK7      -0.126000
     12 C16         21.1650   -28.9230   -24.5390 ca         1 UK7      -0.073300
     13 C17         21.3630   -27.4290   -24.5380 c3         1 UK7       0.198100
     14 C19         22.1450   -29.7580   -25.0400 ca         1 UK7      -0.127000
     15 C20         19.7680   -35.3280   -24.9430 ca         1 UK7      -0.109000
     16 C21         18.8690   -36.3070   -24.5520 ca         1 UK7      -0.134000
     17 C22         18.0850   -36.1340   -23.4230 ca         1 UK7      -0.076000
     18 N01         18.0120   -34.2100   -20.4140 nt         1 UK7      -0.565000
     19 N08         22.7310   -32.1630   -25.4240 na         1 UK7      -0.048400
     20 N18         20.2610   -26.7470   -25.1990 n8         1 UK7      -0.885800
     21 O11         23.1030   -31.0270   -28.0350 oh         1 UK7      -0.586800
     22 S23         15.8140   -35.2710   -21.3770 s          1 UK7      -0.581400
     23 H1          19.2660   -33.1120   -22.4460 ha         1 UK7       0.134000
     24 H2          22.5640   -34.2790   -25.4460 h4         1 UK7       0.159000
     25 H3          24.6580   -32.8530   -25.7480 h1         1 UK7       0.065700
     26 H4          24.4810   -31.1100   -25.7670 h1         1 UK7       0.065700
     27 H5          23.4810   -33.0660   -27.8870 h1         1 UK7       0.026700
     28 H6          24.9190   -32.0520   -28.0060 h1         1 UK7       0.026700
     29 H7          18.8220   -31.2180   -23.6040 ha         1 UK7       0.135000
     30 H8          19.2000   -28.8020   -23.6690 ha         1 UK7       0.143000
     31 H9          22.3480   -27.2030   -24.9680 h1         1 UK7       0.031700
     32 H10         21.3960   -27.0760   -23.5030 h1         1 UK7       0.031700
     33 H11         23.0530   -29.3420   -25.4580 ha         1 UK7       0.133000
     34 H12         20.3440   -35.4640   -25.8500 ha         1 UK7       0.130000
     35 H13         18.7660   -37.2080   -25.1440 ha         1 UK7       0.136000
     36 H14         17.3680   -36.8890   -23.1300 ha         1 UK7       0.159000
     37 H15         17.5040   -34.0190   -19.5650 hn         1 UK7       0.324500
     38 H16         19.0000   -34.0060   -20.4150 hn         1 UK7       0.324500
     39 H17         20.3850   -25.7460   -25.1120 hn         1 UK7       0.339800
     40 H18         20.2880   -26.9470   -26.1910 hn         1 UK7       0.339800
     41 H20         22.9730   -31.1140   -28.9830 ho         1 UK7       0.410000
     42 C09         24.0120   -32.0410   -26.0850 c3         1 UK7       0.047300
@<TRIPOS>BOND
     1     1     2 1   
     2     1    18 1   
     3     1    22 2   
     4     2     3 ar  
     5     2    17 ar  
     6     3     4 ar  
     7     3    23 1   
     8     4     5 1   
     9     4    15 ar  
    10     5     6 2   
    11     5     9 1   
    12     6    19 1   
    13     6    24 1   
    14     7    21 1   
    15     7    27 1   
    16     7    28 1   
    17     7    42 1   
    18     8     9 ar  
    19     8    14 ar  
    20     8    19 1   
    21     9    10 ar  
    22    10    11 ar  
    23    10    29 1   
    24    11    12 ar  
    25    11    30 1   
    26    12    13 1   
    27    12    14 ar  
    28    13    20 1   
    29    13    31 1   
    30    13    32 1   
    31    14    33 1   
    32    15    16 ar  
    33    15    34 1   
    34    16    17 ar  
    35    16    35 1   
    36    17    36 1   
    37    18    37 1   
    38    18    38 1   
    39    19    42 1   
    40    20    39 1   
    41    20    40 1   
    42    21    41 1   
    43    25    42 1   
    44    26    42 1   
@<TRIPOS>SUBSTRUCTURE
     1 UK7         1 TEMP              0 ****  ****    0 ROOT
