@<TRIPOS>MOLECULE
UK8
   44    47     1     0     0
SMALL
abcg2


@<TRIPOS>ATOM
      1 C11         -4.8830    41.1490    13.8440 ca         1 UK8      -0.080000
      2 C14         -5.0930    43.8490    14.4810 ca         1 UK8      -0.157300
      3 C15         -5.2580    45.3040    14.8200 c3         1 UK8       0.358300
      4 C20          0.8420    44.9920    17.1050 ca         1 UK8      -0.198000
      5 C21          1.7290    44.5880    18.0860 ca         1 UK8      -0.057500
      6 C10         -4.0120    42.0750    13.2940 ca         1 UK8       0.125000
      7 C12         -5.8640    41.5840    14.7140 ca         1 UK8      -0.103000
      8 C13         -5.9740    42.9290    15.0300 ca         1 UK8      -0.068000
      9 C16         -1.3090    45.4030    12.3800 cc         1 UK8       0.316500
     10 C17         -0.0250    45.9760    12.0790 cc         1 UK8      -0.279500
     11 C18          0.2700    46.8530    11.0500 cd         1 UK8      -0.132000
     12 C19          1.2180    45.7660    12.7200 cc         1 UK8       0.299900
     13 C2           2.1580    43.2640    18.1830 ca         1 UK8      -0.157600
     14 C3           1.6530    42.3570    17.2590 ca         1 UK8      -0.057500
     15 C4           0.7560    42.7390    16.2680 ca         1 UK8      -0.198000
     16 C5           0.3490    44.0670    16.1840 ca         1 UK8       0.087100
     17 C7          -1.7360    44.4470    13.2520 cd         1 UK8      -0.192300
     18 C8          -3.1230    44.3590    12.9790 cd         1 UK8       0.323500
     19 C9          -4.0930    43.4330    13.5940 ca         1 UK8      -0.064500
     20 F1          -5.8560    45.9710    13.8250 f          1 UK8      -0.106000
     21 F2          -6.0090    45.4790    15.9110 f          1 UK8      -0.106000
     22 F3          -4.0910    45.9080    15.0600 f          1 UK8      -0.106000
     23 N1          -3.4850    45.1810    12.0390 nc         1 UK8      -0.353300
     24 N2           1.5790    47.0930    11.1330 na         1 UK8      -0.002200
     25 N3           2.1750    46.4500    12.1320 nd         1 UK8      -0.520800
     26 O1           3.4940    41.6270    19.2330 o          1 UK8      -0.723000
     27 O2           3.5270    43.7000    20.0580 o          1 UK8      -0.723000
     28 O3          -0.5050    44.5470    15.2510 os         1 UK8      -0.357100
     29 O4          -2.3540    45.8420    11.6720 os         1 UK8      -0.078700
     30 CL1         -2.8070    41.5160    12.1900 cl         1 UK8      -0.178000
     31 H1          -4.7940    40.1010    13.5900 ha         1 UK8       0.134000
     32 H2           0.5260    46.0270    17.0410 ha         1 UK8       0.096000
     33 H3           2.1020    45.3210    18.7890 ha         1 UK8       0.127500
     34 H4          -6.5510    40.8710    15.1490 ha         1 UK8       0.123000
     35 H5          -6.7520    43.2450    15.7100 ha         1 UK8       0.135000
     36 H6          -0.3470    47.3010    10.2880 h4         1 UK8       0.162000
     37 H7           1.4430    45.1530    13.5780 h4         1 UK8       0.071100
     38 H8           1.9640    41.3220    17.3090 ha         1 UK8       0.127500
     39 H9           0.3920    41.9890    15.5790 ha         1 UK8       0.096000
     40 H10         -1.5570    42.8610    14.6570 h1         1 UK8       0.041200
     41 H11         -0.0890    43.1900    13.7370 h1         1 UK8       0.041200
     42 H12          2.1200    47.6940    10.5290 hn         1 UK8       0.370000
     43 C6          -0.9450    43.6630    14.2330 c3         1 UK8       0.245900
     44 C1           3.1470    42.8250    19.2540 c          1 UK8       0.715600
@<TRIPOS>BOND
     1     1     6 ar  
     2     1     7 ar  
     3     1    31 1   
     4     2     3 1   
     5     2     8 ar  
     6     2    19 ar  
     7     3    20 1   
     8     3    21 1   
     9     3    22 1   
    10     4     5 ar  
    11     4    16 ar  
    12     4    32 1   
    13     5    13 ar  
    14     5    33 1   
    15     6    19 ar  
    16     6    30 1   
    17     7     8 ar  
    18     7    34 1   
    19     8    35 1   
    20     9    10 1   
    21     9    17 2   
    22     9    29 1   
    23    10    11 2   
    24    10    12 1   
    25    11    24 1   
    26    11    36 1   
    27    12    25 2   
    28    12    37 1   
    29    13    14 ar  
    30    13    44 1   
    31    14    15 ar  
    32    14    38 1   
    33    15    16 ar  
    34    15    39 1   
    35    16    28 1   
    36    17    18 1   
    37    17    43 1   
    38    18    19 1   
    39    18    23 2   
    40    23    29 1   
    41    24    25 1   
    42    24    42 1   
    43    26    44 1   
    44    27    44 1   
    45    28    43 1   
    46    40    43 1   
    47    41    43 1   
@<TRIPOS>SUBSTRUCTURE
     1 UK8         1 TEMP              0 ****  ****    0 ROOT
