@<TRIPOS>MOLECULE
UK8
   44    47     1     0     0
SMALL
No Charge or Current Charge


@<TRIPOS>ATOM
      1 C11         -4.8580    41.1310    13.8070 ca         1 UK8      -0.080000
      2 C14         -4.7900    43.8310    14.6620 ca         1 UK8      -0.157300
      3 C15         -4.7590    45.2910    15.1570 c3         1 UK8       0.358300
      4 C20          0.6210    45.0180    17.0840 ca         1 UK8      -0.198000
      5 C21          1.4110    44.6310    18.1810 ca         1 UK8      -0.057500
      6 C10         -4.0490    42.0580    13.1360 ca         1 UK8       0.125000
      7 C12         -5.6390    41.5420    14.8960 ca         1 UK8      -0.103000
      8 C13         -5.6050    42.8790    15.3210 ca         1 UK8      -0.068000
      9 C16         -1.3590    45.4260    12.1270 cc         1 UK8       0.316500
     10 C17         -0.0490    45.9690    11.8780 cc         1 UK8      -0.279500
     11 C18          0.2110    46.9390    10.9550 cd         1 UK8      -0.132000
     12 C19          1.1720    45.6460    12.4930 cc         1 UK8       0.299900
     13 C2           1.8640    43.2970    18.3070 ca         1 UK8      -0.157600
     14 C3           1.5040    42.3650    17.3060 ca         1 UK8      -0.057500
     15 C4           0.7140    42.7550    16.2090 ca         1 UK8      -0.198000
     16 C5           0.2690    44.0880    16.0960 ca         1 UK8       0.087100
     17 C7          -1.7360    44.4550    13.0100 cd         1 UK8      -0.192300
     18 C8          -3.1300    44.3390    12.8220 cd         1 UK8       0.323500
     19 C9          -4.0150    43.4100    13.5430 ca         1 UK8      -0.064500
     20 F1          -5.3290    46.1320    14.2650 f          1 UK8      -0.106000
     21 F2          -5.4210    45.4670    16.3240 f          1 UK8      -0.106000
     22 F3          -3.4990    45.7310    15.3700 f          1 UK8      -0.106000
     23 N1          -3.6090    45.1520    11.8950 nc         1 UK8      -0.353300
     24 N2           1.5910    47.1540    11.0570 na         1 UK8      -0.002200
     25 N3           2.1900    46.3410    12.0220 nd         1 UK8      -0.520800
     26 O1           3.0880    41.7120    19.5610 o          1 UK8      -0.723000
     27 O2           3.0040    43.7130    20.3340 o          1 UK8      -0.723000
     28 O3          -0.5050    44.5280    15.0450 os         1 UK8      -0.357100
     29 O4          -2.4550    45.8730    11.4310 os         1 UK8      -0.078700
     30 Cl1         -3.0760    41.4990    11.7750 cl         1 UK8      -0.178000
     31 H1          -4.8800    40.0940    13.4820 ha         1 UK8       0.134000
     32 H2           0.2810    46.0460    17.0010 ha         1 UK8       0.096000
     33 H3           1.6690    45.3740    18.9330 ha         1 UK8       0.127500
     34 H4          -6.2690    40.8220    15.4150 ha         1 UK8       0.123000
     35 H5          -6.2200    43.1650    16.1720 ha         1 UK8       0.135000
     36 H6          -0.4320    47.4750    10.2630 h4         1 UK8       0.162000
     37 H7           1.3650    44.9250    13.2740 h4         1 UK8       0.071100
     38 H8           1.8360    41.3310    17.3740 ha         1 UK8       0.127500
     39 H9           0.4600    42.0080    15.4630 ha         1 UK8       0.096000
     40 H10         -1.5180    42.8270    14.3780 h1         1 UK8       0.041200
     41 H11         -0.0510    43.2250    13.4620 h1         1 UK8       0.041200
     42 H12          2.1370    47.8190    10.5080 hn         1 UK8       0.370000
     43 C6          -0.9170    43.6550    13.9810 c3         1 UK8       0.245900
     44 C1           2.7170    42.8750    19.4910 c          1 UK8       0.715600
@<TRIPOS>BOND
     1     1     6 ar  
     2     1     7 ar  
     3     1    31 1   
     4     2     3 1   
     5     2     8 ar  
     6     2    19 ar  
     7     3    20 1   
     8     3    21 1   
     9     3    22 1   
    10     4     5 ar  
    11     4    16 ar  
    12     4    32 1   
    13     5    13 ar  
    14     5    33 1   
    15     6    19 ar  
    16     6    30 1   
    17     7     8 ar  
    18     7    34 1   
    19     8    35 1   
    20     9    10 1   
    21     9    17 2   
    22     9    29 1   
    23    10    11 2   
    24    10    12 1   
    25    11    24 1   
    26    11    36 1   
    27    12    25 2   
    28    12    37 1   
    29    13    14 ar  
    30    13    44 1   
    31    14    15 ar  
    32    14    38 1   
    33    15    16 ar  
    34    15    39 1   
    35    16    28 1   
    36    17    18 1   
    37    17    43 1   
    38    18    19 1   
    39    18    23 2   
    40    23    29 1   
    41    24    25 1   
    42    24    42 1   
    43    26    44 1   
    44    27    44 1   
    45    28    43 1   
    46    40    43 1   
    47    41    43 1   
@<TRIPOS>SUBSTRUCTURE
     1 UK8         1 TEMP              0 ****  ****    0 ROOT
