@<TRIPOS>MOLECULE
UK9
   29    31     1     0     0
SMALL
No Charge or Current Charge


@<TRIPOS>ATOM
      1 C2         -66.0570   -29.3320   -26.3640 cc         1 UK9       0.213900
      2 C4         -67.1880   -29.9050   -24.2150 ca         1 UK9      -0.070500
      3 C6         -65.9080   -30.5280   -22.2400 ca         1 UK9      -0.087000
      4 C7         -64.7170   -30.3650   -22.9660 ca         1 UK9      -0.119000
      5 C9         -67.0620   -28.0010   -28.0420 ca         1 UK9       0.149100
      6 C11        -68.0150   -26.4160   -29.6520 ca         1 UK9       0.092100
      7 C12        -67.0750   -26.8160   -30.6120 ca         1 UK9      -0.195000
      8 C13        -66.1340   -27.8100   -30.2980 ca         1 UK9      -0.021000
      9 C14        -66.1280   -28.4020   -29.0180 ca         1 UK9      -0.226600
     10 C          -65.1450   -29.4470   -28.6680 c          1 UK9       0.601900
     11 O          -64.3590   -29.9240   -29.4760 o          1 UK9      -0.546100
     12 O1         -67.1410   -28.5750   -26.7760 os         1 UK9      -0.196200
     13 C1         -65.1590   -29.8410   -27.2770 cd         1 UK9      -0.396200
     14 C10        -68.0160   -27.0070   -28.3720 ca         1 UK9       0.084100
     15 C3         -65.9980   -29.7470   -24.9580 ca         1 UK9      -0.074800
     16 C5         -67.1430   -30.2960   -22.8650 ca         1 UK9      -0.119000
     17 C8         -64.7600   -29.9750   -24.3160 ca         1 UK9      -0.070500
     18 O3         -68.9370   -25.4520   -29.9590 oh         1 UK9      -0.550100
     19 H1         -68.1540   -29.7320   -24.6850 ha         1 UK9       0.128000
     20 H3         -65.8730   -30.8300   -21.1950 ha         1 UK9       0.116000
     21 H4         -63.7580   -30.5370   -22.4810 ha         1 UK9       0.118000
     22 H8         -67.0680   -26.3670   -31.6020 ha         1 UK9       0.121000
     23 H9         -65.4090   -28.1160   -31.0520 ha         1 UK9       0.143000
     24 H6         -69.4960   -25.9090   -27.9170 ho         1 UK9       0.482000
     25 H          -64.3900   -30.5520   -27.0040 ha         1 UK9       0.213000
     26 H2         -68.0670   -30.4190   -22.3050 ha         1 UK9       0.118000
     27 H5         -63.8250   -29.8380   -24.8550 ha         1 UK9       0.128000
     28 H7         -68.7890   -25.1580   -30.8850 ho         1 UK9       0.483000
     29 O2         -68.9570   -26.5960   -27.4620 oh         1 UK9      -0.518100
@<TRIPOS>BOND
     1     1    12 1   
     2     1    13 2   
     3     1    15 1   
     4     2    15 ar  
     5     2    16 ar  
     6     2    19 1   
     7     3     4 ar  
     8     3    16 ar  
     9     3    20 1   
    10     4    17 ar  
    11     4    21 1   
    12     5     9 ar  
    13     5    12 1   
    14     5    14 ar  
    15     6     7 ar  
    16     6    14 ar  
    17     6    18 1   
    18     7     8 ar  
    19     7    22 1   
    20     8     9 ar  
    21     8    23 1   
    22     9    10 1   
    23    10    11 2   
    24    10    13 1   
    25    13    25 1   
    26    14    29 1   
    27    15    17 ar  
    28    16    26 1   
    29    17    27 1   
    30    18    28 1   
    31    24    29 1   
@<TRIPOS>SUBSTRUCTURE
     1 UK9         1 TEMP              0 ****  ****    0 ROOT
