@<TRIPOS>MOLECULE
UK9
   29    31     1     0     0
SMALL
abcg2


@<TRIPOS>ATOM
      1 C2         -65.8220   -29.2560   -26.4150 cc         1 UK9       0.213900
      2 C4         -67.1160   -29.4980   -24.3020 ca         1 UK9      -0.070500
      3 C6         -66.1340   -30.5200   -22.3570 ca         1 UK9      -0.087000
      4 C7         -64.9440   -30.6940   -23.0530 ca         1 UK9      -0.119000
      5 C9         -66.8870   -27.9440   -28.0300 ca         1 UK9       0.149100
      6 C11        -68.1120   -26.6080   -29.5850 ca         1 UK9       0.092100
      7 C12        -67.1870   -26.9410   -30.5780 ca         1 UK9      -0.195000
      8 C13        -66.1270   -27.7730   -30.2960 ca         1 UK9      -0.021000
      9 C14        -65.9630   -28.2930   -29.0120 ca         1 UK9      -0.226600
     10 C          -64.8700   -29.2060   -28.6690 c          1 UK9       0.601900
     11 O          -64.0250   -29.5590   -29.4810 o          1 UK9      -0.546100
     12 O1         -66.7920   -28.4020   -26.7630 os         1 UK9      -0.196200
     13 C1         -64.8880   -29.6700   -27.2980 cd         1 UK9      -0.396200
     14 C10        -67.9670   -27.1050   -28.2910 ca         1 UK9       0.084100
     15 C3         -65.9260   -29.6780   -25.0120 ca         1 UK9      -0.074800
     16 C5         -67.2150   -29.9190   -22.9850 ca         1 UK9      -0.119000
     17 C8         -64.8390   -30.2750   -24.3680 ca         1 UK9      -0.070500
     18 O3         -69.1780   -25.8170   -29.7920 oh         1 UK9      -0.550100
     19 H1         -67.9750   -29.0410   -24.7730 ha         1 UK9       0.128000
     20 H3         -66.2150   -30.8480   -21.3290 ha         1 UK9       0.116000
     21 H4         -64.0920   -31.1520   -22.5690 ha         1 UK9       0.118000
     22 H8         -67.3150   -26.5400   -31.5770 ha         1 UK9       0.121000
     23 H9         -65.4180   -28.0300   -31.0700 ha         1 UK9       0.143000
     24 H6         -69.5200   -26.2360   -27.5930 ho         1 UK9       0.482000
     25 H          -64.1340   -30.3810   -26.9930 ha         1 UK9       0.213000
     26 H2         -68.1450   -29.7790   -22.4510 ha         1 UK9       0.118000
     27 H5         -63.8960   -30.4020   -24.8830 ha         1 UK9       0.128000
     28 H7         -69.2120   -25.5050   -30.7040 ho         1 UK9       0.483000
     29 O2         -68.8160   -26.8210   -27.2870 oh         1 UK9      -0.518100
@<TRIPOS>BOND
     1     1    12 1   
     2     1    13 2   
     3     1    15 1   
     4     2    15 ar  
     5     2    16 ar  
     6     2    19 1   
     7     3     4 ar  
     8     3    16 ar  
     9     3    20 1   
    10     4    17 ar  
    11     4    21 1   
    12     5     9 ar  
    13     5    12 1   
    14     5    14 ar  
    15     6     7 ar  
    16     6    14 ar  
    17     6    18 1   
    18     7     8 ar  
    19     7    22 1   
    20     8     9 ar  
    21     8    23 1   
    22     9    10 1   
    23    10    11 2   
    24    10    13 1   
    25    13    25 1   
    26    14    29 1   
    27    15    17 ar  
    28    16    26 1   
    29    17    27 1   
    30    18    28 1   
    31    24    29 1   
@<TRIPOS>SUBSTRUCTURE
     1 UK9         1 TEMP              0 ****  ****    0 ROOT
