@<TRIPOS>MOLECULE
UKA
  104   110     1     0     0
SMALL
No Charge or Current Charge


@<TRIPOS>ATOM
      1 C1          -5.0790     2.7620     1.5400 c5         1 UKA       0.105300
      2 N1          -5.1810     0.2360     1.0020 na         1 UKA      -0.308300
      3 O1          -6.9810     1.4140     2.0100 os         1 UKA      -0.410000
      4 C2          -6.1560     3.0930     0.4720 c5         1 UKA       0.092300
      5 O2          -6.2560     4.5110     0.2510 oh         1 UKA      -0.716000
      6 C3          -7.4390     2.4950     1.1390 c5         1 UKA       0.075300
      7 N3          -5.4090    -1.6870    -0.2610 nc         1 UKA      -0.561100
      8 O3          -5.1540     3.7040     2.6240 oh         1 UKA      -0.697000
      9 C4          -5.5380     1.3150     1.9320 c5         1 UKA       0.321300
     10 N4          -1.7730    -1.1410    -0.8250 nb         1 UKA      -0.323000
     11 C5          -8.4260     1.9950     0.0390 c          1 UKA       0.595100
     12 N5          -2.7540     0.5300     0.6130 nb         1 UKA      -0.160000
     13 O5          -0.1720     1.6530     0.8000 o          1 UKA      -0.574100
     14 C6          -9.8410     2.9810    -1.7880 c3         1 UKA       0.105000
     15 O6           4.6770     0.5070    -2.5430 o          1 UKA      -0.650100
     16 C7         -10.0150     4.3340    -2.4940 c3         1 UKA      -0.112100
     17 N7           0.7230    -0.0010    -0.4810 ns         1 UKA      -0.491900
     18 C8          -6.0240    -0.7940     0.5380 cd         1 UKA       0.427700
     19 N8           3.7700     2.1530    -1.2480 ns         1 UKA      -0.523900
     20 C9          -4.1070    -1.2030    -0.2840 ca         1 UKA      -0.078600
     21 N9           6.0110     2.1190    -1.6370 ns         1 UKA      -0.524900
     22 C10         -3.9520    -0.0700     0.4700 ca         1 UKA       0.103500
     23 N10          9.2380     2.1200     0.0600 nh         1 UKA      -0.780300
     24 C11         -2.9750    -1.7340    -0.9340 ca         1 UKA       0.462900
     25 N11         11.2370     3.0640     0.7480 nb         1 UKA      -0.752000
     26 C12         -1.7010    -0.0280    -0.0420 ca         1 UKA       0.134500
     27 C13         -2.0250    -3.9790    -1.6780 c3         1 UKA       0.231800
     28 C14         -1.9130    -4.7320    -0.3170 c3         1 UKA       0.010900
     29 C15         -1.1090    -6.0370    -0.3970 ca         1 UKA      -0.077800
     30 C16         -1.3660    -3.8370     0.8010 ca         1 UKA      -0.077800
     31 C17         -0.0560    -6.2220    -1.3230 ca         1 UKA      -0.101250
     32 C18          0.6590    -7.4320    -1.3560 ca         1 UKA      -0.108750
     33 C19          0.3370    -8.4670    -0.4640 ca         1 UKA      -0.107000
     34 C20         -0.7010    -8.2910     0.4650 ca         1 UKA      -0.108750
     35 C21         -1.4170    -7.0820     0.4990 ca         1 UKA      -0.101250
     36 C22         -2.2190    -3.3810     1.8290 ca         1 UKA      -0.101250
     37 C23         -1.7330    -2.5210     2.8290 ca         1 UKA      -0.108750
     38 C24         -0.3880    -2.1160     2.8160 ca         1 UKA      -0.107000
     39 C25          0.4710    -2.5730     1.8040 ca         1 UKA      -0.108750
     40 C26         -0.0150    -3.4290     0.8010 ca         1 UKA      -0.101250
     41 C27         -0.3390     0.6310     0.1420 c          1 UKA       0.515600
     42 C28          2.1200     0.4480    -0.4360 c3         1 UKA       0.074000
     43 C29          2.3720     1.7070    -1.2950 c3         1 UKA       0.092000
     44 C30          4.8080     1.5110    -1.8640 c          1 UKA       0.647100
     45 C31          7.3070     1.6530    -2.1510 c6         1 UKA       0.131700
     46 C32          7.8770     0.5040    -1.2840 c6         1 UKA      -0.106400
     47 C33          8.2780     0.9850     0.1300 c6         1 UKA       0.216300
     48 C34          8.7540     3.2660    -0.7640 c6         1 UKA       0.216300
     49 C35          8.3390     2.8040    -2.1820 c6         1 UKA      -0.106400
     50 C36          9.9690     1.8460     2.4050 ca         1 UKA      -0.231000
     51 C37         10.9370     2.1030     3.3870 ca         1 UKA      -0.037000
     52 C38         12.0600     2.8530     3.0140 ca         1 UKA      -0.221000
     53 C39         12.1690     3.3110     1.6920 ca         1 UKA       0.385900
     54 C40         10.1580     2.3430     1.1010 ca         1 UKA       0.618900
     55 H1          -4.0710     2.7640     1.1030 h1         1 UKA       0.085700
     56 H2          -5.9340     2.5660    -0.4690 h1         1 UKA       0.067700
     57 HN2         -8.5000     3.9820    -0.4460 hn         1 UKA       0.324500
     58 HO2         -5.5850     4.7590    -0.4320 ho         1 UKA       0.524000
     59 H3          -7.9570     3.2410     1.7550 h1         1 UKA       0.089700
     60 HO3         -5.5990     4.4910     2.2210 ho         1 UKA       0.523000
     61 H4          -5.1180     1.0250     2.9040 h2         1 UKA       0.132700
     62 H6          -9.4790     2.2360    -2.5100 h1         1 UKA       0.053200
     63 H6A        -10.8090     2.6410    -1.3970 h1         1 UKA       0.053200
     64 HN6         -4.0240    -3.2430    -1.7000 hn         1 UKA       0.514000
     65 H7         -10.3930     5.0900    -1.7950 hc         1 UKA       0.043700
     66 H7A         -9.0600     4.6830    -2.9040 hc         1 UKA       0.043700
     67 H7B        -10.7300     4.2420    -3.3200 hc         1 UKA       0.043700
     68 HN7          0.4960    -0.8450    -0.9960 hn         1 UKA       0.342500
     69 H8          -7.0670    -0.8390     0.8310 h5         1 UKA       0.103800
     70 HN8          3.9910     2.9830    -0.7140 hn         1 UKA       0.308500
     71 HN9          5.9970     2.9510    -1.0640 hn         1 UKA       0.304500
     72 H13         -2.2860    -4.7130    -2.4540 h1         1 UKA       0.064700
     73 H13A        -1.0490    -3.5520    -1.9500 h1         1 UKA       0.064700
     74 H14         -2.9410    -5.0160    -0.0580 hc         1 UKA       0.054700
     75 H17          0.2230    -5.4350    -2.0180 ha         1 UKA       0.112500
     76 H18          1.4670    -7.5650    -2.0720 ha         1 UKA       0.113750
     77 H19          0.8920    -9.4020    -0.4900 ha         1 UKA       0.112500
     78 H20         -0.9500    -9.0900     1.1600 ha         1 UKA       0.113750
     79 H21         -2.2150    -6.9560     1.2270 ha         1 UKA       0.112500
     80 H22         -3.2650    -3.6760     1.8430 ha         1 UKA       0.112500
     81 H23         -2.4010    -2.1660     3.6110 ha         1 UKA       0.113750
     82 H24         -0.0130    -1.4490     3.5890 ha         1 UKA       0.112500
     83 H25          1.5120    -2.2590     1.7930 ha         1 UKA       0.113750
     84 H26          0.6580    -3.7660     0.0170 ha         1 UKA       0.112500
     85 H28          2.3920     0.6570     0.6070 h1         1 UKA       0.063700
     86 H28A         2.7580    -0.3710    -0.7910 h1         1 UKA       0.063700
     87 H29          1.7340     2.5270    -0.9390 h1         1 UKA       0.061700
     88 H29A         2.1000     1.4980    -2.3380 h1         1 UKA       0.061700
     89 H31          7.1560     1.2860    -3.1780 h1         1 UKA       0.082700
     90 H32          7.1450    -0.3100    -1.2050 hc         1 UKA       0.063200
     91 H32A         8.7580     0.0770    -1.7810 hc         1 UKA       0.063200
     92 H33          8.7290     0.1340     0.6620 h1         1 UKA       0.045700
     93 H33A         7.3780     1.2840     0.6880 h1         1 UKA       0.045700
     94 H34          7.8970     3.7430    -0.2680 h1         1 UKA       0.045700
     95 H34A         9.5290     4.0390    -0.8720 h1         1 UKA       0.045700
     96 H35          9.2350     2.4730    -2.7250 hc         1 UKA       0.063200
     97 H35A         7.9370     3.6560    -2.7480 hc         1 UKA       0.063200
     98 H37         10.8180     1.7350     4.4040 ha         1 UKA       0.114000
     99 H38         12.8400     3.0810     3.7350 ha         1 UKA       0.124000
    100 H39         13.0330     3.8970     1.3790 h4         1 UKA       0.014100
    101 N2          -8.8900     3.0740    -0.6820 ns         1 UKA      -0.503900
    102 O4          -8.7920     0.8450    -0.1760 o          1 UKA      -0.592100
    103 N6          -3.0570    -2.9180    -1.6550 nu         1 UKA      -0.908100
    104 H36          9.0820     1.2780     2.6630 ha         1 UKA       0.120000
@<TRIPOS>BOND
     1     1     4 1   
     2     1     8 1   
     3     1     9 1   
     4     1    55 1   
     5     2     9 1   
     6     2    18 1   
     7     2    22 1   
     8     3     6 1   
     9     3     9 1   
    10     4     5 1   
    11     4     6 1   
    12     4    56 1   
    13     5    58 1   
    14     6    11 1   
    15     6    59 1   
    16     7    18 2   
    17     7    20 1   
    18     8    60 1   
    19     9    61 1   
    20    10    24 ar  
    21    10    26 ar  
    22    11   101 1   
    23    11   102 2   
    24    12    22 ar  
    25    12    26 ar  
    26    13    41 2   
    27    14    16 1   
    28    14    62 1   
    29    14    63 1   
    30    14   101 1   
    31    15    44 2   
    32    16    65 1   
    33    16    66 1   
    34    16    67 1   
    35    17    41 1   
    36    17    42 1   
    37    17    68 1   
    38    18    69 1   
    39    19    43 1   
    40    19    44 1   
    41    19    70 1   
    42    20    22 ar  
    43    20    24 ar  
    44    21    44 1   
    45    21    45 1   
    46    21    71 1   
    47    23    47 1   
    48    23    48 1   
    49    23    54 1   
    50    24   103 1   
    51    25    53 ar  
    52    25    54 ar  
    53    26    41 1   
    54    27    28 1   
    55    27    72 1   
    56    27    73 1   
    57    27   103 1   
    58    28    29 1   
    59    28    30 1   
    60    28    74 1   
    61    29    31 ar  
    62    29    35 ar  
    63    30    36 ar  
    64    30    40 ar  
    65    31    32 ar  
    66    31    75 1   
    67    32    33 ar  
    68    32    76 1   
    69    33    34 ar  
    70    33    77 1   
    71    34    35 ar  
    72    34    78 1   
    73    35    79 1   
    74    36    37 ar  
    75    36    80 1   
    76    37    38 ar  
    77    37    81 1   
    78    38    39 ar  
    79    38    82 1   
    80    39    40 ar  
    81    39    83 1   
    82    40    84 1   
    83    42    43 1   
    84    42    85 1   
    85    42    86 1   
    86    43    87 1   
    87    43    88 1   
    88    45    46 1   
    89    45    49 1   
    90    45    89 1   
    91    46    47 1   
    92    46    90 1   
    93    46    91 1   
    94    47    92 1   
    95    47    93 1   
    96    48    49 1   
    97    48    94 1   
    98    48    95 1   
    99    49    96 1   
   100    49    97 1   
   101    50    51 ar  
   102    50    54 ar  
   103    50   104 1   
   104    51    52 ar  
   105    51    98 1   
   106    52    53 ar  
   107    52    99 1   
   108    53   100 1   
   109    57   101 1   
   110    64   103 1   
@<TRIPOS>SUBSTRUCTURE
     1 UKA         1 TEMP              0 ****  ****    0 ROOT
