@<TRIPOS>MOLECULE
UKA
  104   110     1     0     0
SMALL
abcg2


@<TRIPOS>ATOM
      1 C1          -5.1060     3.4900    -0.0230 c5         1 UKA       0.105300
      2 N1          -4.9510     1.0900     0.5450 na         1 UKA      -0.308300
      3 O1          -6.5250     2.4830     1.5520 os         1 UKA      -0.410000
      4 C2          -6.5410     3.5120    -0.5590 c5         1 UKA       0.092300
      5 O2          -6.9080     4.7200    -1.1550 oh         1 UKA      -0.716000
      6 C3          -7.3390     3.2950     0.7330 c5         1 UKA       0.075300
      7 N3          -5.2450    -1.0180    -0.1210 nc         1 UKA      -0.561100
      8 O3          -4.7870     4.6980     0.6090 oh         1 UKA      -0.697000
      9 C4          -5.2160     2.4260     1.0650 c5         1 UKA       0.321300
     10 N4          -1.5990    -0.7900    -0.4680 nb         1 UKA      -0.323000
     11 C5          -8.6770     2.6180     0.4720 c          1 UKA       0.595100
     12 N5          -2.5450     1.2430     0.3260 nb         1 UKA      -0.160000
     13 O5          -0.0150     2.2590     0.3550 o          1 UKA      -0.574100
     14 C6         -10.9280     2.9950    -0.4210 c3         1 UKA       0.105000
     15 O6           4.8200    -0.6680    -1.9200 o          1 UKA      -0.650100
     16 C7         -11.6720     4.1120    -1.1270 c3         1 UKA      -0.112100
     17 N7           0.8250     0.2610    -0.3120 ns         1 UKA      -0.491900
     18 C8          -5.8270     0.0670     0.3100 cd         1 UKA       0.427700
     19 N8           4.0240     1.4540    -1.8440 ns         1 UKA      -0.523900
     20 C9          -3.9190    -0.6980    -0.1720 ca         1 UKA      -0.078600
     21 N9           6.2850     1.0640    -1.8240 ns         1 UKA      -0.524900
     22 C10         -3.7110     0.6090     0.2410 ca         1 UKA       0.103500
     23 N10          9.1930     1.6320     0.2280 nh         1 UKA      -0.780300
     24 C11         -2.7680    -1.4270    -0.5350 ca         1 UKA       0.462900
     25 N11         11.0570     2.9510     0.5590 nb         1 UKA      -0.752000
     26 C12         -1.5440     0.4720    -0.0480 ca         1 UKA       0.134500
     27 C13         -1.7030    -3.5350    -1.2570 c3         1 UKA       0.231800
     28 C14         -1.5650    -4.7230    -0.2940 c3         1 UKA       0.010900
     29 C15         -0.3950    -5.5900    -0.7130 ca         1 UKA      -0.077800
     30 C16         -1.4830    -4.3330     1.1670 ca         1 UKA      -0.077800
     31 C17          0.9180    -5.1280    -0.6310 ca         1 UKA      -0.101250
     32 C18          1.9780    -5.9270    -1.0330 ca         1 UKA      -0.108750
     33 C19          1.7440    -7.2060    -1.5250 ca         1 UKA      -0.107000
     34 C20          0.4420    -7.6750    -1.6140 ca         1 UKA      -0.108750
     35 C21         -0.6170    -6.8700    -1.2120 ca         1 UKA      -0.101250
     36 C22         -2.1320    -5.1300     2.1080 ca         1 UKA      -0.101250
     37 C23         -2.0590    -4.8460     3.4640 ca         1 UKA      -0.108750
     38 C24         -1.3330    -3.7480     3.9060 ca         1 UKA      -0.107000
     39 C25         -0.6840    -2.9440     2.9790 ca         1 UKA      -0.108750
     40 C26         -0.7580    -3.2350     1.6230 ca         1 UKA      -0.101250
     41 C27         -0.1670     1.0970     0.0150 c          1 UKA       0.515600
     42 C28          2.2150     0.6390    -0.3660 c3         1 UKA       0.074000
     43 C29          2.6400     1.0580    -1.7760 c3         1 UKA       0.092000
     44 C30          5.0320     0.5400    -1.8530 c          1 UKA       0.647100
     45 C31          7.4630     0.2320    -1.6630 c6         1 UKA       0.131700
     46 C32          7.6610    -0.2290    -0.2200 c6         1 UKA      -0.106400
     47 C33          8.0230     0.9200     0.7090 c6         1 UKA       0.216300
     48 C34          9.0830     2.1130    -1.1410 c6         1 UKA       0.216300
     49 C35          8.7080     0.9940    -2.1020 c6         1 UKA      -0.106400
     50 C36          9.8930     2.1960     2.4990 ca         1 UKA      -0.231000
     51 C37         10.8300     2.8120     3.3020 ca         1 UKA      -0.037000
     52 C38         11.8950     3.5030     2.7320 ca         1 UKA      -0.221000
     53 C39         11.9420     3.5410     1.3510 ca         1 UKA       0.385900
     54 C40         10.0450     2.2660     1.0970 ca         1 UKA       0.618900
     55 H1          -4.3740     3.2230    -0.7950 h1         1 UKA       0.085700
     56 H2          -6.6850     2.6650    -1.2410 h1         1 UKA       0.067700
     57 HN2         -9.3820     4.4180    -0.1320 hn         1 UKA       0.324500
     58 HO2         -6.7020     4.6820    -2.0940 ho         1 UKA       0.524000
     59 H3          -7.5090     4.2640     1.2200 h1         1 UKA       0.089700
     60 HO3         -5.1160     5.4180     0.0570 ho         1 UKA       0.523000
     61 H4          -4.5030     2.6050     1.8740 h2         1 UKA       0.132700
     62 H6         -10.8380     2.1300    -1.0810 h1         1 UKA       0.053200
     63 H6A        -11.4870     2.6670     0.4600 h1         1 UKA       0.053200
     64 HN6         -3.7490    -3.1150    -0.9830 hn         1 UKA       0.514000
     65 H7         -11.7860     4.9850    -0.4830 hc         1 UKA       0.043700
     66 H7A        -11.1520     4.4210    -2.0340 hc         1 UKA       0.043700
     67 H7B        -12.6680     3.7750    -1.4090 hc         1 UKA       0.043700
     68 HN7          0.5530    -0.6530    -0.6400 hn         1 UKA       0.342500
     69 H8          -6.8870     0.1770     0.4800 h5         1 UKA       0.103800
     70 HN8          4.2340     2.4220    -1.6680 hn         1 UKA       0.308500
     71 HN9          6.3870     2.0570    -1.6890 hn         1 UKA       0.304500
     72 H13         -1.8180    -3.9270    -2.2710 h1         1 UKA       0.064700
     73 H13A        -0.8070    -2.9200    -1.2600 h1         1 UKA       0.064700
     74 H14         -2.4680    -5.3320    -0.4090 hc         1 UKA       0.054700
     75 H17          1.1300    -4.1380    -0.2450 ha         1 UKA       0.112500
     76 H18          2.9900    -5.5510    -0.9600 ha         1 UKA       0.113750
     77 H19          2.5720    -7.8300    -1.8350 ha         1 UKA       0.112500
     78 H20          0.2440    -8.6680    -1.9970 ha         1 UKA       0.113750
     79 H21         -1.6320    -7.2420    -1.2880 ha         1 UKA       0.112500
     80 H22         -2.7020    -5.9890     1.7720 ha         1 UKA       0.112500
     81 H23         -2.5740    -5.4810     4.1740 ha         1 UKA       0.113750
     82 H24         -1.2770    -3.5180     4.9620 ha         1 UKA       0.112500
     83 H25         -0.1200    -2.0820     3.3110 ha         1 UKA       0.113750
     84 H26         -0.2450    -2.5810     0.9290 ha         1 UKA       0.112500
     85 H28          2.3890     1.4580     0.3310 h1         1 UKA       0.063700
     86 H28A         2.8140    -0.2080    -0.0350 h1         1 UKA       0.063700
     87 H29          2.0340     1.9040    -2.1010 h1         1 UKA       0.061700
     88 H29A         2.4540     0.2440    -2.4770 h1         1 UKA       0.061700
     89 H31          7.3450    -0.6430    -2.3030 h1         1 UKA       0.082700
     90 H32          6.7590    -0.7170     0.1530 hc         1 UKA       0.063200
     91 H32A         8.4610    -0.9740    -0.1940 hc         1 UKA       0.063200
     92 H33          8.2220     0.5010     1.6920 h1         1 UKA       0.045700
     93 H33A         7.1700     1.6050     0.8230 h1         1 UKA       0.045700
     94 H34          8.3480     2.9310    -1.1900 h1         1 UKA       0.045700
     95 H34A        10.0340     2.5420    -1.4410 h1         1 UKA       0.045700
     96 H35          9.5370     0.2850    -2.1620 hc         1 UKA       0.063200
     97 H35A         8.5720     1.4120    -3.1020 hc         1 UKA       0.063200
     98 H37         10.7190     2.7620     4.3780 ha         1 UKA       0.114000
     99 H38         12.6450     3.9990     3.3300 ha         1 UKA       0.124000
    100 H39         12.7390     4.0780     0.8480 h4         1 UKA       0.014100
    101 N2          -9.6040     3.4400    -0.0270 ns         1 UKA      -0.503900
    102 O4          -8.8630     1.4260     0.6650 o          1 UKA      -0.592100
    103 N6          -2.8320    -2.6990    -0.9360 nu         1 UKA      -0.908100
    104 H36          9.0590     1.6910     2.9590 ha         1 UKA       0.120000
@<TRIPOS>BOND
     1     1     4 1   
     2     1     8 1   
     3     1     9 1   
     4     1    55 1   
     5     2     9 1   
     6     2    18 1   
     7     2    22 1   
     8     3     6 1   
     9     3     9 1   
    10     4     5 1   
    11     4     6 1   
    12     4    56 1   
    13     5    58 1   
    14     6    11 1   
    15     6    59 1   
    16     7    18 2   
    17     7    20 1   
    18     8    60 1   
    19     9    61 1   
    20    10    24 ar  
    21    10    26 ar  
    22    11   101 1   
    23    11   102 2   
    24    12    22 ar  
    25    12    26 ar  
    26    13    41 2   
    27    14    16 1   
    28    14    62 1   
    29    14    63 1   
    30    14   101 1   
    31    15    44 2   
    32    16    65 1   
    33    16    66 1   
    34    16    67 1   
    35    17    41 1   
    36    17    42 1   
    37    17    68 1   
    38    18    69 1   
    39    19    43 1   
    40    19    44 1   
    41    19    70 1   
    42    20    22 ar  
    43    20    24 ar  
    44    21    44 1   
    45    21    45 1   
    46    21    71 1   
    47    23    47 1   
    48    23    48 1   
    49    23    54 1   
    50    24   103 1   
    51    25    53 ar  
    52    25    54 ar  
    53    26    41 1   
    54    27    28 1   
    55    27    72 1   
    56    27    73 1   
    57    27   103 1   
    58    28    29 1   
    59    28    30 1   
    60    28    74 1   
    61    29    31 ar  
    62    29    35 ar  
    63    30    36 ar  
    64    30    40 ar  
    65    31    32 ar  
    66    31    75 1   
    67    32    33 ar  
    68    32    76 1   
    69    33    34 ar  
    70    33    77 1   
    71    34    35 ar  
    72    34    78 1   
    73    35    79 1   
    74    36    37 ar  
    75    36    80 1   
    76    37    38 ar  
    77    37    81 1   
    78    38    39 ar  
    79    38    82 1   
    80    39    40 ar  
    81    39    83 1   
    82    40    84 1   
    83    42    43 1   
    84    42    85 1   
    85    42    86 1   
    86    43    87 1   
    87    43    88 1   
    88    45    46 1   
    89    45    49 1   
    90    45    89 1   
    91    46    47 1   
    92    46    90 1   
    93    46    91 1   
    94    47    92 1   
    95    47    93 1   
    96    48    49 1   
    97    48    94 1   
    98    48    95 1   
    99    49    96 1   
   100    49    97 1   
   101    50    51 ar  
   102    50    54 ar  
   103    50   104 1   
   104    51    52 ar  
   105    51    98 1   
   106    52    53 ar  
   107    52    99 1   
   108    53   100 1   
   109    57   101 1   
   110    64   103 1   
@<TRIPOS>SUBSTRUCTURE
     1 UKA         1 TEMP              0 ****  ****    0 ROOT
