@<TRIPOS>MOLECULE
UKB
   45    48     1     0     0
SMALL
No Charge or Current Charge


@<TRIPOS>ATOM
      1 O1           2.3860    41.8420    20.1450 o          1 UKB      -0.712000
      2 O4          -2.5210    45.9140    11.5410 os         1 UKB      -0.079700
      3 N2           1.4440    47.3550    11.0060 na         1 UKB      -0.103000
      4 C1           2.6610    42.8850    19.5710 c          1 UKB       0.724600
      5 C3           1.3250    44.6220    18.3240 ca         1 UKB      -0.040000
      6 C4           0.5380    45.0180    17.2300 ca         1 UKB      -0.191000
      7 C5           0.2420    44.1150    16.2000 ca         1 UKB       0.124100
      8 C6          -0.8950    43.7140    14.0530 c3         1 UKB       0.247900
      9 C21          0.7440    42.8000    16.2640 ca         1 UKB      -0.284000
     10 C22          1.5290    42.4020    17.3580 ca         1 UKB       0.222000
     11 C10         -4.0070    42.0660    13.2630 ca         1 UKB       0.126000
     12 C11         -4.7850    41.1210    13.9460 ca         1 UKB      -0.081000
     13 C12         -5.5510    41.5120    15.0520 ca         1 UKB      -0.105000
     14 C13         -5.5350    42.8480    15.4820 ca         1 UKB      -0.067000
     15 C14         -4.7510    43.8180    14.8110 ca         1 UKB      -0.157300
     16 C15         -4.7410    45.2770    15.3110 c3         1 UKB       0.356300
     17 C16         -1.4010    45.4910    12.2160 cc         1 UKB       0.318500
     18 C17         -0.1060    46.0710    11.9390 cc         1 UKB      -0.238500
     19 C18          1.1400    45.7880    12.5420 cc         1 UKB      -0.115000
     20 C19          2.0980    46.5760    11.9700 cd         1 UKB      -0.212000
     21 C2           1.8230    43.3040    18.3990 ca         1 UKB      -0.198600
     22 C20          0.0780    47.0430    10.9900 cd         1 UKB      -0.155000
     23 C7          -1.7440    44.5090    13.1030 cd         1 UKB      -0.201300
     24 C8          -3.1380    44.3660    12.9410 cd         1 UKB       0.322500
     25 C9          -3.9910    43.4170    13.6750 ca         1 UKB      -0.064500
     26 F1          -3.4860    45.7420    15.5020 f          1 UKB      -0.104667
     27 F2          -5.3840    45.4360    16.4910 f          1 UKB      -0.104667
     28 F3          -5.3440    46.1090    14.4330 f          1 UKB      -0.104667
     29 N1          -3.6510    45.1690    12.0260 nc         1 UKB      -0.354300
     30 O2           3.5350    43.6520    19.9490 o          1 UKB      -0.712000
     31 H1           1.8910    48.0460    10.4080 hn         1 UKB       0.342000
     32 H2           1.5450    45.3350    19.1170 ha         1 UKB       0.136000
     33 H3           0.1540    46.0340    17.1810 ha         1 UKB       0.110000
     34 H4          -1.4620    42.8460    14.4140 h1         1 UKB       0.042700
     35 H5          -0.0090    43.3370    13.5280 h1         1 UKB       0.042700
     36 H6           0.5440    42.0760    15.4810 ha         1 UKB       0.108000
     37 H7          -4.7930    40.0840    13.6170 ha         1 UKB       0.132000
     38 H8          -6.1560    40.7780    15.5810 ha         1 UKB       0.122000
     39 H9          -6.1380    43.1180    16.3470 ha         1 UKB       0.135000
     40 H10          1.3200    45.0730    13.3380 ha         1 UKB       0.164000
     41 H11          3.1630    46.6490    12.1660 h4         1 UKB       0.153000
     42 H12         -0.6280    47.5260    10.3200 h4         1 UKB       0.154000
     43 F4           2.0200    41.1430    17.3750 f          1 UKB      -0.171000
     44 O3          -0.5320    44.5620    15.1530 os         1 UKB      -0.351100
     45 Cl1         -3.0530    41.5310    11.8800 cl         1 UKB      -0.179000
@<TRIPOS>BOND
     1     1     4 1   
     2     2    17 1   
     3     2    29 1   
     4     3    20 1   
     5     3    22 1   
     6     3    31 1   
     7     4    21 1   
     8     4    30 1   
     9     5     6 ar  
    10     5    21 ar  
    11     5    32 1   
    12     6     7 ar  
    13     6    33 1   
    14     7     9 ar  
    15     7    44 1   
    16     8    23 1   
    17     8    34 1   
    18     8    35 1   
    19     8    44 1   
    20     9    10 ar  
    21     9    36 1   
    22    10    21 ar  
    23    10    43 1   
    24    11    12 ar  
    25    11    25 ar  
    26    11    45 1   
    27    12    13 ar  
    28    12    37 1   
    29    13    14 ar  
    30    13    38 1   
    31    14    15 ar  
    32    14    39 1   
    33    15    16 1   
    34    15    25 ar  
    35    16    26 1   
    36    16    27 1   
    37    16    28 1   
    38    17    18 1   
    39    17    23 2   
    40    18    19 1   
    41    18    22 2   
    42    19    20 2   
    43    19    40 1   
    44    20    41 1   
    45    22    42 1   
    46    23    24 1   
    47    24    25 1   
    48    24    29 2   
@<TRIPOS>SUBSTRUCTURE
     1 UKB         1 TEMP              0 ****  ****    0 ROOT
