@<TRIPOS>MOLECULE
UKB
   45    48     1     0     0
SMALL
bcc


@<TRIPOS>ATOM
      1 O1           3.5780    41.8770    19.4520 o          1 UKB      -0.817300
      2 O4          -2.4060    45.8540    11.7450 os         1 UKB      -0.124100
      3 N2           1.4930    47.1530    11.0650 na         1 UKB      -0.154100
      4 C1           3.1300    43.0350    19.3980 c          1 UKB       0.935200
      5 C3           1.5420    44.6250    18.2330 ca         1 UKB      -0.058000
      6 C4           0.6280    44.9970    17.2690 ca         1 UKB      -0.209000
      7 C5           0.2550    44.0800    16.2840 ca         1 UKB       0.124100
      8 C6          -0.9360    43.6680    14.2630 c3         1 UKB       0.224700
      9 C21          0.8080    42.8060    16.2980 ca         1 UKB      -0.302000
     10 C22          1.7240    42.4790    17.2900 ca         1 UKB       0.186900
     11 C10         -4.1300    42.1020    13.2700 ca         1 UKB       0.034400
     12 C11         -5.0090    41.1830    13.8210 ca         1 UKB      -0.099000
     13 C12         -5.8850    41.5980    14.8060 ca         1 UKB      -0.123000
     14 C13         -5.8800    42.9150    15.2410 ca         1 UKB      -0.085000
     15 C14         -4.9920    43.8250    14.6870 ca         1 UKB      -0.157300
     16 C15         -5.0040    45.2520    15.1590 c3         1 UKB       0.720200
     17 C16         -1.3420    45.4190    12.4290 cc         1 UKB       0.428200
     18 C17         -0.0700    46.0090    12.1180 cc         1 UKB      -0.238500
     19 C18          1.1590    45.8640    12.8260 cc         1 UKB      -0.133000
     20 C19          2.1000    46.5840    12.1440 cd         1 UKB      -0.179300
     21 C2           2.1280    43.3560    18.2870 ca         1 UKB      -0.198600
     22 C20          0.1880    46.8220    11.0280 cd         1 UKB      -0.122300
     23 C7          -1.7490    44.4490    13.3010 cd         1 UKB      -0.331900
     24 C8          -3.1410    44.3580    13.0570 cd         1 UKB       0.387800
     25 C9          -4.1010    43.4300    13.6840 ca         1 UKB      -0.064500
     26 F1          -3.7730    45.7000    15.4320 f          1 UKB      -0.225967
     27 F2          -5.7280    45.4060    16.2690 f          1 UKB      -0.225967
     28 F3          -5.5240    46.0720    14.2380 f          1 UKB      -0.225967
     29 N1          -3.5270    45.1850    12.1320 nc         1 UKB      -0.354300
     30 O2           3.4050    43.9830    20.1580 o          1 UKB      -0.817300
     31 H1           1.9520    47.7380    10.3850 hn         1 UKB       0.291700
     32 H2           1.8270    45.3450    18.9870 ha         1 UKB       0.154000
     33 H3           0.2030    45.9930    17.2640 ha         1 UKB       0.128000
     34 H4          -1.4860    42.7820    14.5990 h1         1 UKB       0.042700
     35 H5          -0.0160    43.3190    13.7810 h1         1 UKB       0.042700
     36 H6           0.5540    42.0540    15.5640 ha         1 UKB       0.126000
     37 H7          -5.0080    40.1570    13.4800 ha         1 UKB       0.150000
     38 H8          -6.5770    40.8910    15.2420 ha         1 UKB       0.140000
     39 H9          -6.5730    43.2150    16.0130 ha         1 UKB       0.153000
     40 H10          1.3360    45.3150    13.7360 ha         1 UKB       0.182000
     41 H11          3.1460    46.7390    12.3460 h4         1 UKB       0.171000
     42 H12         -0.4600    47.1690    10.2390 h4         1 UKB       0.172000
     43 F4           2.2150    41.2340    17.2200 f          1 UKB      -0.135900
     44 O3          -0.6300    44.5110    15.3660 os         1 UKB      -0.327900
     45 CL1         -3.0460    41.5730    12.0340 cl         1 UKB      -0.087400
@<TRIPOS>BOND
     1     1     4 1   
     2     2    17 1   
     3     2    29 1   
     4     3    20 1   
     5     3    22 1   
     6     3    31 1   
     7     4    21 1   
     8     4    30 1   
     9     5     6 ar  
    10     5    21 ar  
    11     5    32 1   
    12     6     7 ar  
    13     6    33 1   
    14     7     9 ar  
    15     7    44 1   
    16     8    23 1   
    17     8    34 1   
    18     8    35 1   
    19     8    44 1   
    20     9    10 ar  
    21     9    36 1   
    22    10    21 ar  
    23    10    43 1   
    24    11    12 ar  
    25    11    25 ar  
    26    11    45 1   
    27    12    13 ar  
    28    12    37 1   
    29    13    14 ar  
    30    13    38 1   
    31    14    15 ar  
    32    14    39 1   
    33    15    16 1   
    34    15    25 ar  
    35    16    26 1   
    36    16    27 1   
    37    16    28 1   
    38    17    18 1   
    39    17    23 2   
    40    18    19 1   
    41    18    22 2   
    42    19    20 2   
    43    19    40 1   
    44    20    41 1   
    45    22    42 1   
    46    23    24 1   
    47    24    25 1   
    48    24    29 2   
@<TRIPOS>SUBSTRUCTURE
     1 UKB         1 TEMP              0 ****  ****    0 ROOT
