@<TRIPOS>MOLECULE
UKC
   40    43     1     0     0
SMALL
No Charge or Current Charge


@<TRIPOS>ATOM
      1 C1          -0.2950     0.5820    -3.1250 ca         1 UKC       0.615300
      2 O           -0.8840     0.7370    -4.3570 os         1 UKC      -0.455300
      3 C           -2.1970     0.2080    -4.6290 c3         1 UKC       0.158900
      4 C2           0.9800     1.1250    -2.9410 ca         1 UKC      -0.197000
      5 C3           1.6150     0.9830    -1.7020 ca         1 UKC      -0.036000
      6 C4           0.9460     0.2820    -0.6800 ca         1 UKC      -0.109200
      7 N1           1.5540     0.1110     0.5770 na         1 UKC      -0.037300
      8 C5           2.8840    -0.1890     0.7940 cc         1 UKC      -0.183300
      9 C6           3.9150    -0.6000    -0.2280 c3         1 UKC      -0.017800
     10 C7           3.0230    -0.0740     2.1580 cd         1 UKC       0.235900
     11 N4           1.8190     0.2440     2.7670 nd         1 UKC      -0.662000
     12 C8           0.9240     0.3130     1.7910 cc         1 UKC       0.477000
     13 C9          -0.5050     0.5520     1.9950 ca         1 UKC      -0.177500
     14 C10         -0.9360     1.2790     3.1240 ca         1 UKC      -0.023000
     15 C11         -2.3100     1.4440     3.3310 ca         1 UKC      -0.184000
     16 C12         -3.2040     0.8600     2.4280 ca         1 UKC       0.368900
     17 N2          -2.7970     0.1290     1.3680 nb         1 UKC      -0.713000
     18 C13         -1.4730    -0.0380     1.1480 ca         1 UKC       0.459500
     19 N3          -1.0290    -0.8200     0.1000 na         1 UKC      -0.349000
     20 C14         -0.3640    -0.2040    -0.9390 ca         1 UKC       0.502500
     21 N           -0.9540    -0.0610    -2.1440 nb         1 UKC      -0.791000
     22 C15         -1.2200    -2.2810     0.1090 c3         1 UKC       0.076600
     23 C16         -0.0100    -3.0350     0.6910 c3         1 UKC      -0.099100
     24 H1          -2.4930     0.4300    -5.6620 h1         1 UKC       0.049700
     25 H2A         -2.2150    -0.8820    -4.4980 h1         1 UKC       0.049700
     26 H3A         -2.9450     0.6520    -3.9590 h1         1 UKC       0.049700
     27 H2           1.4630     1.6510    -3.7580 ha         1 UKC       0.145000
     28 H3           2.5970     1.4210    -1.5430 ha         1 UKC       0.135000
     29 H61          4.4650     0.2700    -0.6060 hc         1 UKC       0.048033
     30 H62          4.6460    -1.2860     0.2150 hc         1 UKC       0.048033
     31 H63          3.4550    -1.1160    -1.0800 hc         1 UKC       0.048033
     32 H7           3.9230    -0.2260     2.7400 h4         1 UKC       0.038100
     33 H10         -0.2210     1.7160     3.8190 ha         1 UKC       0.140000
     34 H11         -2.6830     2.0100     4.1800 ha         1 UKC       0.130000
     35 H12         -4.2800     0.9680     2.5620 h4         1 UKC       0.021100
     36 H151        -1.3990    -2.6250    -0.9180 h1         1 UKC       0.056200
     37 H152        -2.1130    -2.5240     0.6990 h1         1 UKC       0.056200
     38 H161        -0.1970    -4.1160     0.6850 hc         1 UKC       0.040700
     39 H162         0.8920    -2.8390     0.0990 hc         1 UKC       0.040700
     40 H163         0.1790    -2.7260     1.7260 hc         1 UKC       0.040700
@<TRIPOS>BOND
     1     1     2 1   
     2     1     4 ar  
     3     1    21 ar  
     4     2     3 1   
     5     3    24 1   
     6     3    25 1   
     7     3    26 1   
     8     4     5 ar  
     9     4    27 1   
    10     5     6 ar  
    11     5    28 1   
    12     6     7 1   
    13     6    20 ar  
    14     7     8 1   
    15     7    12 1   
    16     8     9 1   
    17     8    10 2   
    18     9    29 1   
    19     9    30 1   
    20     9    31 1   
    21    10    11 1   
    22    10    32 1   
    23    11    12 2   
    24    12    13 1   
    25    13    14 ar  
    26    13    18 ar  
    27    14    15 ar  
    28    14    33 1   
    29    15    16 ar  
    30    15    34 1   
    31    16    17 ar  
    32    16    35 1   
    33    17    18 ar  
    34    18    19 1   
    35    19    20 1   
    36    19    22 1   
    37    20    21 ar  
    38    22    23 1   
    39    22    36 1   
    40    22    37 1   
    41    23    38 1   
    42    23    39 1   
    43    23    40 1   
@<TRIPOS>SUBSTRUCTURE
     1 UKC         1 TEMP              0 ****  ****    0 ROOT
