@<TRIPOS>MOLECULE
UKC
   40    43     1     0     0
SMALL
bcc


@<TRIPOS>ATOM
      1 C1          -0.1320     0.3330    -2.9250 ca         1 UKC       0.680600
      2 O           -0.6780     0.2680    -4.1360 os         1 UKC      -0.432100
      3 C           -1.8650    -0.5000    -4.2960 c3         1 UKC       0.135700
      4 C2           1.0400     1.0840    -2.7810 ca         1 UKC      -0.280300
      5 C3           1.6260     1.1010    -1.5380 ca         1 UKC      -0.054000
      6 C4           1.0650     0.3760    -0.4890 ca         1 UKC      -0.174500
      7 N1           1.7000     0.2930     0.7640 na         1 UKC      -0.088000
      8 C5           3.0450     0.1040     1.0040 cc         1 UKC      -0.197900
      9 C6           4.0650    -0.1750    -0.0380 c3         1 UKC      -0.017800
     10 C7           3.1650     0.1930     2.3620 cd         1 UKC       0.301200
     11 N4           1.9570     0.4200     2.9500 nd         1 UKC      -0.662000
     12 C8           1.0910     0.4670     1.9700 cc         1 UKC       0.477000
     13 C9          -0.3430     0.6470     2.1300 ca         1 UKC      -0.242800
     14 C10         -0.8380     1.4470     3.1520 ca         1 UKC      -0.041000
     15 C11         -2.2010     1.4950     3.3890 ca         1 UKC      -0.267300
     16 C12         -3.0230     0.7210     2.5890 ca         1 UKC       0.434200
     17 N2          -2.5690    -0.0350     1.5960 nb         1 UKC      -0.713000
     18 C13         -1.2700    -0.0760     1.3610 ca         1 UKC       0.524800
     19 N3          -0.8260    -0.9140     0.3230 na         1 UKC      -0.319700
     20 C14         -0.1460    -0.2700    -0.7200 ca         1 UKC       0.567800
     21 N           -0.7100    -0.2840    -1.9190 nb         1 UKC      -0.791000
     22 C15         -1.6870    -2.0410    -0.0410 c3         1 UKC       0.047300
     23 C16         -0.8930    -3.1650    -0.6820 c3         1 UKC      -0.099100
     24 H1          -2.1140    -0.4440    -5.3530 h1         1 UKC       0.049700
     25 H2A         -1.7130    -1.5420    -4.0140 h1         1 UKC       0.049700
     26 H3A         -2.6890    -0.0960    -3.7070 h1         1 UKC       0.049700
     27 H2           1.4650     1.6270    -3.6140 ha         1 UKC       0.163000
     28 H3           2.5290     1.6750    -1.3830 ha         1 UKC       0.153000
     29 H61          4.4040     0.7260    -0.5510 hc         1 UKC       0.048033
     30 H62          4.9380    -0.6260     0.4310 hc         1 UKC       0.048033
     31 H63          3.6980    -0.8680    -0.7950 hc         1 UKC       0.048033
     32 H7           4.0690     0.0830     2.9420 h4         1 UKC       0.038100
     33 H10         -0.1490     2.0110     3.7670 ha         1 UKC       0.158000
     34 H11         -2.6150     2.1060     4.1790 ha         1 UKC       0.148000
     35 H12         -4.0950     0.7080     2.7500 h4         1 UKC       0.021100
     36 H151        -2.5070    -1.7320    -0.6920 h1         1 UKC       0.056200
     37 H152        -2.1340    -2.4010     0.8840 h1         1 UKC       0.056200
     38 H161        -1.5430    -4.0290    -0.8260 hc         1 UKC       0.040700
     39 H162        -0.4970    -2.8880    -1.6580 hc         1 UKC       0.040700
     40 H163        -0.0620    -3.4730    -0.0470 hc         1 UKC       0.040700
@<TRIPOS>BOND
     1     1     2 1   
     2     1     4 ar  
     3     1    21 ar  
     4     2     3 1   
     5     3    24 1   
     6     3    25 1   
     7     3    26 1   
     8     4     5 ar  
     9     4    27 1   
    10     5     6 ar  
    11     5    28 1   
    12     6     7 1   
    13     6    20 ar  
    14     7     8 1   
    15     7    12 1   
    16     8     9 1   
    17     8    10 2   
    18     9    29 1   
    19     9    30 1   
    20     9    31 1   
    21    10    11 1   
    22    10    32 1   
    23    11    12 2   
    24    12    13 1   
    25    13    14 ar  
    26    13    18 ar  
    27    14    15 ar  
    28    14    33 1   
    29    15    16 ar  
    30    15    34 1   
    31    16    17 ar  
    32    16    35 1   
    33    17    18 ar  
    34    18    19 1   
    35    19    20 1   
    36    19    22 1   
    37    20    21 ar  
    38    22    23 1   
    39    22    36 1   
    40    22    37 1   
    41    23    38 1   
    42    23    39 1   
    43    23    40 1   
@<TRIPOS>SUBSTRUCTURE
     1 UKC         1 TEMP              0 ****  ****    0 ROOT
