@<TRIPOS>MOLECULE
UKD
   21    21     1     0     0
SMALL
No Charge or Current Charge


@<TRIPOS>ATOM
      1 O3         -19.8590   -24.5610   -29.3540 o          1 UKD      -0.942500
      2 O4         -17.7520   -25.9100   -28.9310 o          1 UKD      -0.942500
      3 P          -19.1230   -25.8510   -29.5250 p5         1 UKD       1.147200
      4 O1         -19.8530   -27.0900   -29.1170 o          1 UKD      -0.942500
      5 CE2        -18.8030   -26.1080   -31.4670 cc         1 UKD       0.159300
      6 NE1        -18.1920   -27.1000   -32.2090 nc         1 UKD      -0.383000
      7 ND1        -18.2400   -26.7840   -33.4770 nd         1 UKD      -0.311800
      8 CD2        -19.2500   -25.1360   -32.3200 cd         1 UKD      -0.238000
      9 NG         -18.8940   -25.5830   -33.5720 na         1 UKD       0.093800
     10 CB         -19.1090   -24.9020   -34.8650 c3         1 UKD       0.109600
     11 CA         -20.6010   -24.7990   -35.2930 c3         1 UKD       0.013500
     12 N          -21.2260   -26.1640   -35.5090 n8         1 UKD      -0.999200
     13 C          -20.7680   -23.7620   -36.4800 c          1 UKD       0.720000
     14 O          -21.8130   -23.1270   -36.5430 o          1 UKD      -0.755500
     15 H3         -19.7710   -24.2060   -32.1340 h4         1 UKD       0.144000
     16 H4         -18.5380   -25.4230   -35.6440 h1         1 UKD       0.047700
     17 H5         -18.6950   -23.8900   -34.7750 h1         1 UKD       0.047700
     18 H6         -21.1370   -24.3580   -34.4410 h1         1 UKD       0.012700
     19 H7         -21.1310   -26.7200   -34.6500 hn         1 UKD       0.388500
     20 H8         -22.2420   -26.0550   -35.6220 hn         1 UKD       0.388500
     21 OXT        -19.8590   -23.6220   -37.2880 o          1 UKD      -0.755500
@<TRIPOS>BOND
     1     1     3 1   
     2     2     3 1   
     3     3     4 1   
     4     3     5 1   
     5     5     6 1   
     6     5     8 2   
     7     6     7 2   
     8     7     9 1   
     9     8     9 1   
    10     8    15 1   
    11     9    10 1   
    12    10    11 1   
    13    10    16 1   
    14    10    17 1   
    15    11    12 1   
    16    11    13 1   
    17    11    18 1   
    18    12    19 1   
    19    12    20 1   
    20    13    14 1   
    21    13    21 1   
@<TRIPOS>SUBSTRUCTURE
     1 UKD         1 TEMP              0 ****  ****    0 ROOT
