@<TRIPOS>MOLECULE
UKD
   21    21     1     0     0
SMALL
bcc


@<TRIPOS>ATOM
      1 O3         -19.2330   -24.5330   -29.2760 o          1 UKD      -0.942500
      2 O4         -17.6420   -26.5550   -29.1120 o          1 UKD      -0.942500
      3 P          -18.9920   -26.0130   -29.5850 p5         1 UKD       1.147200
      4 O1         -20.1800   -26.9250   -29.2780 o          1 UKD      -0.942500
      5 CE2        -18.8780   -26.0140   -31.4410 cc         1 UKD       0.224600
      6 NE1        -18.5340   -27.0730   -32.2220 nc         1 UKD      -0.383000
      7 ND1        -18.5730   -26.7380   -33.4710 nd         1 UKD      -0.311800
      8 CD2        -19.1370   -24.9750   -32.3030 cd         1 UKD      -0.270600
      9 NG         -18.9330   -25.4700   -33.5380 na         1 UKD       0.072400
     10 CB         -19.1420   -24.8030   -34.8090 c3         1 UKD       0.080300
     11 CA         -20.6160   -24.7670   -35.2020 c3         1 UKD       0.013500
     12 N          -21.1400   -26.1150   -35.3010 n8         1 UKD      -0.888800
     13 C          -20.8060   -23.9850   -36.5310 c          1 UKD       0.930600
     14 O          -21.6580   -24.4270   -37.3240 o          1 UKD      -0.860800
     15 H3         -19.4350   -23.9530   -32.1350 h4         1 UKD       0.162000
     16 H4         -18.5600   -25.3440   -35.5560 h1         1 UKD       0.047700
     17 H5         -18.7430   -23.7950   -34.7280 h1         1 UKD       0.047700
     18 H6         -21.1390   -24.1700   -34.4340 h1         1 UKD       0.012700
     19 H7         -21.4520   -26.4440   -34.3970 hn         1 UKD       0.333300
     20 H8         -21.9510   -26.0910   -35.9050 hn         1 UKD       0.333300
     21 OXT        -20.1130   -22.9590   -36.6670 o          1 UKD      -0.860800
@<TRIPOS>BOND
     1     1     3 1   
     2     2     3 1   
     3     3     4 1   
     4     3     5 1   
     5     5     6 1   
     6     5     8 2   
     7     6     7 2   
     8     7     9 1   
     9     8     9 1   
    10     8    15 1   
    11     9    10 1   
    12    10    11 1   
    13    10    16 1   
    14    10    17 1   
    15    11    12 1   
    16    11    13 1   
    17    11    18 1   
    18    12    19 1   
    19    12    20 1   
    20    13    14 1   
    21    13    21 1   
@<TRIPOS>SUBSTRUCTURE
     1 UKD         1 TEMP              0 ****  ****    0 ROOT
