@<TRIPOS>MOLECULE
UKE
   20    21     1     0     0
SMALL
No Charge or Current Charge


@<TRIPOS>ATOM
      1 C10         18.2840     6.8250    67.0910 cc         1 UKE       0.491600
      2 C01         24.1040     4.7440    65.3930 c3         1 UKE       0.154900
      3 C03         22.4820     5.2260    67.1890 ca         1 UKE       0.100100
      4 C04         21.4940     5.6690    66.2720 ca         1 UKE      -0.155000
      5 C05         20.2630     6.0970    66.7850 ca         1 UKE       0.095400
      6 C06         20.0130     6.0930    68.1220 ca         1 UKE      -0.029900
      7 C07         20.9580     5.6650    69.0620 ca         1 UKE      -0.060000
      8 C08         22.2080     5.2270    68.5770 ca         1 UKE      -0.159000
      9 C12         16.8670     7.3750    66.9270 c          1 UKE       0.659700
     10 N11         19.1720     6.5630    66.0900 nd         1 UKE      -0.604100
     11 O02         23.7240     4.7850    66.7810 os         1 UKE      -0.356100
     12 O09         18.7640     6.5480    68.3790 os         1 UKE      -0.253700
     13 O13         16.1730     7.5640    67.9260 o          1 UKE      -0.666500
     14 O14         16.4350     7.6220    65.8010 o          1 UKE      -0.666500
     15 H1          25.1280     4.3630    65.2910 h1         1 UKE       0.032033
     16 H2          23.4370     4.0820    64.8260 h1         1 UKE       0.032033
     17 H3          24.0680     5.7470    64.9490 h1         1 UKE       0.032033
     18 H4          21.6620     5.6840    65.2000 ha         1 UKE       0.124000
     19 H5          20.7350     5.6710    70.1260 ha         1 UKE       0.120000
     20 H6          22.9680     4.8870    69.2760 ha         1 UKE       0.109000
@<TRIPOS>BOND
     1     1     9 1   
     2     1    10 2   
     3     1    12 1   
     4     2    11 1   
     5     2    15 1   
     6     2    16 1   
     7     2    17 1   
     8     3     4 ar  
     9     3     8 ar  
    10     3    11 1   
    11     4     5 ar  
    12     4    18 1   
    13     5     6 ar  
    14     5    10 1   
    15     6     7 ar  
    16     6    12 1   
    17     7     8 ar  
    18     7    19 1   
    19     8    20 1   
    20     9    13 1   
    21     9    14 1   
@<TRIPOS>SUBSTRUCTURE
     1 UKE         1 TEMP              0 ****  ****    0 ROOT
