@<TRIPOS>MOLECULE
UKE
   20    21     1     0     0
SMALL
bcc


@<TRIPOS>ATOM
      1 C10         18.3130     6.8120    67.0640 cc         1 UKE       0.491600
      2 C01         24.0290     4.7720    65.4450 c3         1 UKE       0.131700
      3 C03         22.4550     5.2360    67.1560 ca         1 UKE       0.100100
      4 C04         21.5010     5.6610    66.2400 ca         1 UKE      -0.173000
      5 C05         20.2780     6.0870    66.7550 ca         1 UKE       0.095400
      6 C06         20.0350     6.0820    68.1200 ca         1 UKE      -0.029900
      7 C07         20.9710     5.6620    69.0470 ca         1 UKE      -0.078000
      8 C08         22.1850     5.2390    68.5400 ca         1 UKE      -0.177000
      9 C12         16.8980     7.3660    66.9310 c          1 UKE       0.870300
     10 N11         19.1510     6.5600    66.1170 nd         1 UKE      -0.604100
     11 O02         23.6840     4.7970    66.8140 os         1 UKE      -0.332900
     12 O09         18.7770     6.5460    68.3080 os         1 UKE      -0.253700
     13 O13         16.2880     7.5220    67.9980 o          1 UKE      -0.771800
     14 O14         16.5410     7.5920    65.7680 o          1 UKE      -0.771800
     15 H1          25.0460     4.3910    65.3890 h1         1 UKE       0.032033
     16 H2          23.3750     4.1120    64.8700 h1         1 UKE       0.032033
     17 H3          24.0030     5.7700    64.9980 h1         1 UKE       0.032033
     18 H4          21.6730     5.6720    65.1730 ha         1 UKE       0.142000
     19 H5          20.7790     5.6590    70.1120 ha         1 UKE       0.138000
     20 H6          22.9590     4.8990    69.2170 ha         1 UKE       0.127000
@<TRIPOS>BOND
     1     1     9 1   
     2     1    10 2   
     3     1    12 1   
     4     2    11 1   
     5     2    15 1   
     6     2    16 1   
     7     2    17 1   
     8     3     4 ar  
     9     3     8 ar  
    10     3    11 1   
    11     4     5 ar  
    12     4    18 1   
    13     5     6 ar  
    14     5    10 1   
    15     6     7 ar  
    16     6    12 1   
    17     7     8 ar  
    18     7    19 1   
    19     8    20 1   
    20     9    13 1   
    21     9    14 1   
@<TRIPOS>SUBSTRUCTURE
     1 UKE         1 TEMP              0 ****  ****    0 ROOT
