@<TRIPOS>MOLECULE
UKG
   29    31     1     0     0
SMALL
abcg2


@<TRIPOS>ATOM
      1 C13          9.1170    -8.0890    64.7660 ca         1 UKG      -0.097000
      2 C15          7.4410   -11.1190    61.9350 cc         1 UKG      -0.493500
      3 C17          5.4130   -11.1640    62.9950 cd         1 UKG      -0.084900
      4 C04          9.9280    -9.6730    63.1540 ca         1 UKG       0.224000
      5 C05         10.5190    -8.6480    62.4320 ca         1 UKG      -0.035000
      6 C06         10.3990    -7.3330    62.8770 ca         1 UKG      -0.128500
      7 C07         11.0330    -6.2740    62.1000 cc         1 UKG       0.448000
      8 C12          9.6940    -7.0560    64.0450 ca         1 UKG      -0.095000
      9 C14          9.2230    -9.3960    64.3210 ca         1 UKG      -0.115000
     10 C16          6.6420   -11.8290    62.7770 cd         1 UKG       0.032000
     11 C19          5.3270    -9.9800    62.3180 cc         1 UKG      -0.002000
     12 N03         10.0550   -11.0130    62.7010 nu         1 UKG      -0.863100
     13 N08         11.2150    -5.0030    62.4700 na         1 UKG      -0.210700
     14 N09         11.8260    -4.3520    61.4970 nc         1 UKG      -0.200800
     15 N10         12.0130    -5.1970    60.5600 nd         1 UKG      -0.035000
     16 N11         11.5380    -6.3930    60.8920 nd         1 UKG      -0.371000
     17 O01          9.3570   -10.6600    60.3110 o          1 UKG      -0.517000
     18 O22          9.2200   -12.9470    61.3850 o          1 UKG      -0.517000
     19 S02          9.0790   -11.5090    61.4520 sy         1 UKG       1.182600
     20 S21          6.7360    -9.6500    61.4010 ss         1 UKG       0.437000
     21 BR18         4.0540   -11.8290    64.0750 br         1 UKG      -0.031100
     22 CL20         4.0160    -8.9080    62.3100 cl         1 UKG      -0.100000
     23 H1           8.5690    -7.8720    65.6730 ha         1 UKG       0.127000
     24 H2          11.0890    -8.8740    61.5420 ha         1 UKG       0.172000
     25 H3           9.5820    -6.0410    64.4030 ha         1 UKG       0.113000
     26 H4           8.7610   -10.2030    64.8780 ha         1 UKG       0.122000
     27 H5           6.9100   -12.7770    63.2230 ha         1 UKG       0.160000
     28 H6          10.0630   -11.7020    63.4490 hn         1 UKG       0.491000
     29 H7          10.9820    -4.5260    63.3310 hn         1 UKG       0.387000
@<TRIPOS>BOND
     1     1     8 ar  
     2     1     9 ar  
     3     1    23 1   
     4     2    10 2   
     5     2    19 1   
     6     2    20 1   
     7     3    10 1   
     8     3    11 2   
     9     3    21 1   
    10     4     5 ar  
    11     4     9 ar  
    12     4    12 1   
    13     5     6 ar  
    14     5    24 1   
    15     6     7 1   
    16     6     8 ar  
    17     7    13 1   
    18     7    16 2   
    19     8    25 1   
    20     9    26 1   
    21    10    27 1   
    22    11    20 1   
    23    11    22 1   
    24    12    19 1   
    25    12    28 1   
    26    13    14 1   
    27    13    29 1   
    28    14    15 2   
    29    15    16 1   
    30    17    19 2   
    31    18    19 2   
@<TRIPOS>SUBSTRUCTURE
     1 UKG         1 TEMP              0 ****  ****    0 ROOT
