@<TRIPOS>MOLECULE
UKG
   29    31     1     0     0
SMALL
No Charge or Current Charge


@<TRIPOS>ATOM
      1 C13          9.9880    -8.5020    65.3380 ca         1 UKG      -0.097000
      2 C15          7.8300   -10.9740    61.6660 cc         1 UKG      -0.493500
      3 C17          5.8240   -10.0170    62.3820 cd         1 UKG      -0.084900
      4 C04         10.1010   -10.0230    63.4390 ca         1 UKG       0.224000
      5 C05         10.1460    -8.9150    62.5720 ca         1 UKG      -0.035000
      6 C06         10.0890    -7.5930    63.0700 ca         1 UKG      -0.128500
      7 C07         10.0980    -6.4560    62.1400 cc         1 UKG       0.448000
      8 C12         10.0070    -7.4000    64.4680 ca         1 UKG      -0.095000
      9 C14         10.0360    -9.8090    64.8250 ca         1 UKG      -0.115000
     10 C16          6.8640   -10.9530    62.6430 cd         1 UKG       0.032000
     11 C19          6.0090    -9.3420    61.2000 cc         1 UKG      -0.002000
     12 N03         10.1230   -11.3310    62.9550 nu         1 UKG      -0.863100
     13 N08         10.0770    -5.1340    62.4760 na         1 UKG      -0.210700
     14 N09         10.0800    -4.3590    61.3620 nc         1 UKG      -0.200800
     15 N10         10.1010    -5.2120    60.3740 nd         1 UKG      -0.035000
     16 N11         10.1110    -6.5130    60.8230 nd         1 UKG      -0.371000
     17 O01         10.1030   -11.6310    60.4650 o          1 UKG      -0.517000
     18 O22          8.9770   -13.3190    62.0590 o          1 UKG      -0.517000
     19 S02          9.2910   -11.9540    61.6390 sy         1 UKG       1.182600
     20 S21          7.4720    -9.8570    60.3650 ss         1 UKG       0.437000
     21 Br18         4.3720    -9.7470    63.5580 br         1 UKG      -0.031100
     22 Cl20         4.9610    -8.1160    60.5480 cl         1 UKG      -0.100000
     23 H1           9.9290    -8.3440    66.4130 ha         1 UKG       0.127000
     24 H2          10.2290    -9.0850    61.5030 ha         1 UKG       0.172000
     25 H3           9.9590    -6.4000    64.8910 ha         1 UKG       0.113000
     26 H4          10.0110   -10.6540    65.5080 ha         1 UKG       0.122000
     27 H5           6.8950   -11.5730    63.5360 ha         1 UKG       0.160000
     28 H6          10.0560   -12.0640    63.6480 hn         1 UKG       0.491000
     29 H7          10.0620    -4.7420    63.4090 hn         1 UKG       0.387000
@<TRIPOS>BOND
     1     1     8 ar  
     2     1     9 ar  
     3     1    23 1   
     4     2    10 2   
     5     2    19 1   
     6     2    20 1   
     7     3    10 1   
     8     3    11 2   
     9     3    21 1   
    10     4     5 ar  
    11     4     9 ar  
    12     4    12 1   
    13     5     6 ar  
    14     5    24 1   
    15     6     7 1   
    16     6     8 ar  
    17     7    13 1   
    18     7    16 2   
    19     8    25 1   
    20     9    26 1   
    21    10    27 1   
    22    11    20 1   
    23    11    22 1   
    24    12    19 1   
    25    12    28 1   
    26    13    14 1   
    27    13    29 1   
    28    14    15 2   
    29    15    16 1   
    30    17    19 2   
    31    18    19 2   
@<TRIPOS>SUBSTRUCTURE
     1 UKG         1 TEMP              0 ****  ****    0 ROOT
