@<TRIPOS>MOLECULE
UKI
   62    65     1     0     0
SMALL
abcg2


@<TRIPOS>ATOM
      1 C4         -16.7620    -6.6060    11.9440 ca         1 UKI       0.395300
      2 C5         -16.2060    -5.3440    11.7510 ca         1 UKI      -0.339000
      3 C6         -17.0600    -4.2870    12.0100 ca         1 UKI       0.169900
      4 N1         -18.3110    -4.4310    12.4130 nb         1 UKI      -0.268000
      5 N3         -18.0070    -6.7800    12.3430 nb         1 UKI      -0.263000
      6 CBG        -25.9940   -10.1840    13.7740 c3         1 UKI       0.150100
      7 NBF        -25.7710   -10.2160    12.3420 n3         1 UKI      -0.729600
      8 CBH        -26.8810    -9.6030    11.6420 c3         1 UKI       0.150100
      9 CBE        -25.4880   -11.5580    11.8640 c3         1 UKI       0.155800
     10 CBD        -24.0320   -11.9390    12.0850 c3         1 UKI       0.212800
     11 NBC        -23.2080   -10.9680    11.3720 n7         1 UKI      -0.876300
     12 SAZ        -21.5760   -11.1110    11.3410 s6         1 UKI       1.182100
     13 OBA        -21.2730   -12.5180    11.1210 o          1 UKI      -0.529500
     14 OBB        -21.0830   -10.1150    10.4020 o          1 UKI      -0.529500
     15 CAW        -21.3050    -9.2790    13.3580 ca         1 UKI      -0.052300
     16 CAX        -20.4640    -8.2360    12.9790 ca         1 UKI      -0.103000
     17 CAV        -22.4750    -9.0230    14.0600 ca         1 UKI      -0.146000
     18 CAU        -22.8100    -7.7130    14.3720 ca         1 UKI      -0.077000
     19 CAT        -21.9780    -6.6730    14.0060 ca         1 UKI      -0.166000
     20 CAS        -20.7850    -6.9200    13.3150 ca         1 UKI       0.326000
     21 C2         -18.7300    -5.6910    12.5660 ca         1 UKI       0.415900
     22 OAG        -16.1050    -7.7540    11.7540 os         1 UKI      -0.346400
     23 CAH        -14.7910    -7.7170    11.3130 ca         1 UKI       0.055100
     24 CAM        -13.7750    -7.7470    12.2420 ca         1 UKI      -0.057000
     25 CAL        -12.4580    -7.7570    11.7740 ca         1 UKI      -0.091800
     26 CAP        -11.1780    -7.7900    12.4050 cc         1 UKI      -0.234200
     27 CAO        -10.2360    -7.7850    11.4120 cd         1 UKI      -0.054300
     28 CAR         -8.7540    -7.8110    11.5060 c3         1 UKI      -0.040900
     29 NAN        -10.8690    -7.7500    10.1990 na         1 UKI      -0.220700
     30 CAK        -12.2220    -7.7330    10.3800 ca         1 UKI      -0.046200
     31 CAJ        -13.2580    -7.7020     9.4520 ca         1 UKI      -0.117000
     32 CAI        -14.5530    -7.6930     9.9330 ca         1 UKI      -0.095000
     33 H1         -15.1900    -5.1800    11.4270 ha         1 UKI       0.148000
     34 H2         -16.7080    -3.2690    11.8850 h4         1 UKI       0.021100
     35 H3         -25.1700   -10.6540    14.3090 h1         1 UKI       0.033033
     36 H4         -26.0610    -9.1510    14.1190 h1         1 UKI       0.033033
     37 H5         -26.9180   -10.7020    14.0700 h1         1 UKI       0.033033
     38 H7         -26.6840    -9.5770    10.5700 h1         1 UKI       0.033033
     39 H8         -27.8370   -10.1260    11.7990 h1         1 UKI       0.033033
     40 H9         -27.0090    -8.5740    11.9830 h1         1 UKI       0.033033
     41 H10        -26.1310   -12.3170    12.3350 h1         1 UKI       0.047200
     42 H11        -25.6880   -11.5970    10.7910 h1         1 UKI       0.047200
     43 H12        -23.8610   -12.9320    11.6720 h1         1 UKI       0.049700
     44 H13        -23.7960   -11.9820    13.1540 h1         1 UKI       0.049700
     45 H14        -23.5390   -10.0140    11.4950 hn         1 UKI       0.510000
     46 H15        -21.3810   -11.4130    13.6740 h1         1 UKI       0.104700
     47 H16        -19.8780   -10.8480    12.9310 h1         1 UKI       0.104700
     48 H17        -19.5560    -8.4540    12.4420 ha         1 UKI       0.165000
     49 H18        -23.1130    -9.8380    14.3740 ha         1 UKI       0.109000
     50 H19        -23.7210    -7.5010    14.9160 ha         1 UKI       0.112000
     51 H20        -22.2460    -5.6550    14.2670 ha         1 UKI       0.112000
     52 H21        -20.4460    -4.9130    13.1820 hn         1 UKI       0.512000
     53 H22        -13.9960    -7.7660    13.3030 ha         1 UKI       0.133000
     54 H23        -10.9750    -7.8140    13.4640 ha         1 UKI       0.207000
     55 H24         -8.3080    -6.9360    11.0310 hc         1 UKI       0.051367
     56 H25         -8.4400    -7.8280    12.5470 hc         1 UKI       0.051367
     57 H26         -8.3400    -8.6940    11.0140 hc         1 UKI       0.051367
     58 H27        -10.4040    -7.7410     9.3050 hn         1 UKI       0.350000
     59 H28        -13.0640    -7.6870     8.3870 ha         1 UKI       0.120000
     60 H29        -15.3900    -7.6750     9.2470 ha         1 UKI       0.133000
     61 NAQ        -20.0150    -5.8070    12.9950 nu         1 UKI      -0.926900
     62 CAY        -20.9560   -10.6840    12.9830 c3         1 UKI      -0.286100
@<TRIPOS>BOND
     1     1     2 ar  
     2     1     5 ar  
     3     1    22 1   
     4     2     3 ar  
     5     2    33 1   
     6     3     4 ar  
     7     3    34 1   
     8     4    21 ar  
     9     5    21 ar  
    10     6     7 1   
    11     6    35 1   
    12     6    36 1   
    13     6    37 1   
    14     7     8 1   
    15     7     9 1   
    16     8    38 1   
    17     8    39 1   
    18     8    40 1   
    19     9    10 1   
    20     9    41 1   
    21     9    42 1   
    22    10    11 1   
    23    10    43 1   
    24    10    44 1   
    25    11    12 1   
    26    11    45 1   
    27    12    13 2   
    28    12    14 2   
    29    12    62 1   
    30    15    16 ar  
    31    15    17 ar  
    32    15    62 1   
    33    16    20 ar  
    34    16    48 1   
    35    17    18 ar  
    36    17    49 1   
    37    18    19 ar  
    38    18    50 1   
    39    19    20 ar  
    40    19    51 1   
    41    20    61 1   
    42    21    61 1   
    43    22    23 1   
    44    23    24 ar  
    45    23    32 ar  
    46    24    25 ar  
    47    24    53 1   
    48    25    26 1   
    49    25    30 ar  
    50    26    27 2   
    51    26    54 1   
    52    27    28 1   
    53    27    29 1   
    54    28    55 1   
    55    28    56 1   
    56    28    57 1   
    57    29    30 1   
    58    29    58 1   
    59    30    31 ar  
    60    31    32 ar  
    61    31    59 1   
    62    32    60 1   
    63    46    62 1   
    64    47    62 1   
    65    52    61 1   
@<TRIPOS>SUBSTRUCTURE
     1 UKI         1 TEMP              0 ****  ****    0 ROOT
