@<TRIPOS>MOLECULE
UKI
   62    65     1     0     0
SMALL
No Charge or Current Charge


@<TRIPOS>ATOM
      1 C4         -16.9510    -6.1720    12.6560 ca         1 UKI       0.395300
      2 C5         -16.6650    -4.9560    12.0120 ca         1 UKI      -0.339000
      3 C6         -17.7360    -4.0910    11.7490 ca         1 UKI       0.169900
      4 N1         -18.9940    -4.4100    12.1030 nb         1 UKI      -0.268000
      5 N3         -18.2060    -6.4840    13.0210 nb         1 UKI      -0.263000
      6 CBG        -25.5700    -9.8180    13.0510 c3         1 UKI       0.150100
      7 NBF        -25.1420    -9.9630    11.6400 n3         1 UKI      -0.729600
      8 CBH        -26.1200    -9.3560    10.7100 c3         1 UKI       0.150100
      9 CBE        -24.8000   -11.3690    11.2680 c3         1 UKI       0.155800
     10 CBD        -23.4860   -11.9160    11.8940 c3         1 UKI       0.212800
     11 NBC        -22.3420   -11.0960    11.4520 n7         1 UKI      -0.876300
     12 SAZ        -20.8250   -11.4130    12.0550 s6         1 UKI       1.182100
     13 OBA        -20.6750   -12.8700    12.0530 o          1 UKI      -0.529500
     14 OBB        -19.9030   -10.5840    11.2760 o          1 UKI      -0.529500
     15 CAW        -21.3940    -9.3930    13.9590 ca         1 UKI      -0.052300
     16 CAX        -20.6840    -8.2990    13.4220 ca         1 UKI      -0.103000
     17 CAV        -22.5460    -9.1510    14.7270 ca         1 UKI      -0.146000
     18 CAU        -23.0100    -7.8410    14.9170 ca         1 UKI      -0.077000
     19 CAT        -22.3100    -6.7600    14.3570 ca         1 UKI      -0.166000
     20 CAS        -21.1330    -6.9780    13.6230 ca         1 UKI       0.326000
     21 C2         -19.1630    -5.5950    12.7120 ca         1 UKI       0.415900
     22 OAG        -15.9360    -7.0490    12.9610 os         1 UKI      -0.346400
     23 CAH        -14.8840    -7.3010    12.1080 ca         1 UKI       0.055100
     24 CAM        -13.6000    -7.5060    12.6560 ca         1 UKI      -0.057000
     25 CAL        -12.5470    -7.7740    11.7710 ca         1 UKI      -0.091800
     26 CAP        -11.1600    -8.0160    12.0220 cc         1 UKI      -0.234200
     27 CAO        -10.5560    -8.2280    10.7900 cd         1 UKI      -0.054300
     28 CAR         -9.1090    -8.5240    10.5000 c3         1 UKI      -0.040900
     29 NAN        -11.5350    -8.1240     9.7750 na         1 UKI      -0.220700
     30 CAK        -12.7310    -7.8470    10.4190 ca         1 UKI      -0.046200
     31 CAJ        -13.9960    -7.6610     9.8460 ca         1 UKI      -0.117000
     32 CAI        -15.0830    -7.3890    10.7050 ca         1 UKI      -0.095000
     33 H1         -15.6510    -4.6870    11.7340 ha         1 UKI       0.148000
     34 H2         -17.5870    -3.1310    11.2560 h4         1 UKI       0.021100
     35 H3         -24.8350   -10.2510    13.7380 h1         1 UKI       0.033033
     36 H4         -25.6910    -8.7580    13.3120 h1         1 UKI       0.033033
     37 H5         -26.5300   -10.3240    13.2210 h1         1 UKI       0.033033
     38 H7         -25.7470    -9.3920     9.6770 h1         1 UKI       0.033033
     39 H8         -27.0800    -9.8880    10.7480 h1         1 UKI       0.033033
     40 H9         -26.2990    -8.3040    10.9660 h1         1 UKI       0.033033
     41 H10        -25.6240   -12.0400    11.5440 h1         1 UKI       0.047200
     42 H11        -24.6880   -11.4430    10.1780 h1         1 UKI       0.047200
     43 H12        -23.3580   -12.9580    11.5710 h1         1 UKI       0.049700
     44 H13        -23.5760   -11.9190    12.9880 h1         1 UKI       0.049700
     45 H14        -22.5080   -10.1540    11.8050 hn         1 UKI       0.510000
     46 H15        -21.5650   -11.5330    14.2790 h1         1 UKI       0.104700
     47 H16        -19.8960   -10.9420    14.1570 h1         1 UKI       0.104700
     48 H17        -19.7900    -8.4790    12.8370 ha         1 UKI       0.165000
     49 H18        -23.0860    -9.9800    15.1780 ha         1 UKI       0.109000
     50 H19        -23.9100    -7.6620    15.5020 ha         1 UKI       0.112000
     51 H20        -22.6760    -5.7490    14.5120 ha         1 UKI       0.112000
     52 H21        -21.0620    -5.0370    13.0230 hn         1 UKI       0.512000
     53 H22        -13.4340    -7.4540    13.7290 ha         1 UKI       0.133000
     54 H23        -10.6570    -8.0340    12.9860 ha         1 UKI       0.207000
     55 H24         -8.6710    -7.7540     9.8540 hc         1 UKI       0.051367
     56 H25         -8.5190    -8.5610    11.4240 hc         1 UKI       0.051367
     57 H26         -8.9990    -9.4910     9.9950 hc         1 UKI       0.051367
     58 H27        -11.3900    -8.2320     8.7760 hn         1 UKI       0.350000
     59 H28        -14.1390    -7.7270     8.7700 ha         1 UKI       0.120000
     60 H29        -16.0760    -7.2520    10.2830 ha         1 UKI       0.133000
     61 NAQ        -20.4710    -5.8650    13.0890 nu         1 UKI      -0.926900
     62 CAY        -20.9100   -10.8270    13.7590 c3         1 UKI      -0.286100
@<TRIPOS>BOND
     1     1     2 ar  
     2     1     5 ar  
     3     1    22 1   
     4     2     3 ar  
     5     2    33 1   
     6     3     4 ar  
     7     3    34 1   
     8     4    21 ar  
     9     5    21 ar  
    10     6     7 1   
    11     6    35 1   
    12     6    36 1   
    13     6    37 1   
    14     7     8 1   
    15     7     9 1   
    16     8    38 1   
    17     8    39 1   
    18     8    40 1   
    19     9    10 1   
    20     9    41 1   
    21     9    42 1   
    22    10    11 1   
    23    10    43 1   
    24    10    44 1   
    25    11    12 1   
    26    11    45 1   
    27    12    13 2   
    28    12    14 2   
    29    12    62 1   
    30    15    16 ar  
    31    15    17 ar  
    32    15    62 1   
    33    16    20 ar  
    34    16    48 1   
    35    17    18 ar  
    36    17    49 1   
    37    18    19 ar  
    38    18    50 1   
    39    19    20 ar  
    40    19    51 1   
    41    20    61 1   
    42    21    61 1   
    43    22    23 1   
    44    23    24 ar  
    45    23    32 ar  
    46    24    25 ar  
    47    24    53 1   
    48    25    26 1   
    49    25    30 ar  
    50    26    27 2   
    51    26    54 1   
    52    27    28 1   
    53    27    29 1   
    54    28    55 1   
    55    28    56 1   
    56    28    57 1   
    57    29    30 1   
    58    29    58 1   
    59    30    31 ar  
    60    31    32 ar  
    61    31    59 1   
    62    32    60 1   
    63    46    62 1   
    64    47    62 1   
    65    52    61 1   
@<TRIPOS>SUBSTRUCTURE
     1 UKI         1 TEMP              0 ****  ****    0 ROOT
