@<TRIPOS>MOLECULE
UKJ
   31    32     1     0     0
SMALL
abcg2


@<TRIPOS>ATOM
      1 O5          25.0570     0.8050   -13.4640 o          1 UKJ      -0.379000
      2 N1          25.8250     0.0170   -12.9730 no         1 UKJ       0.704200
      3 O4          26.7170    -0.5410   -13.5660 o          1 UKJ      -0.379000
      4 C3          25.6950    -0.2680   -11.5530 ca         1 UKJ      -0.233200
      5 C2          26.8560    -0.5070   -10.8450 ca         1 UKJ       0.087000
      6 C4          24.4400    -0.3040   -10.9280 ca         1 UKJ       0.259100
      7 O3          23.3520    -0.1150   -11.6790 os         1 UKJ      -0.210200
      8 C11         22.1050    -0.3960   -11.1710 ca         1 UKJ       0.107100
      9 C10         21.2730     0.6680   -10.8730 ca         1 UKJ      -0.094000
     10 C9          19.9930     0.3810   -10.4210 ca         1 UKJ       0.009100
     11 BR1         18.8310     1.8010   -10.0080 br         1 UKJ      -0.057100
     12 C12         21.7070    -1.7160   -11.0320 ca         1 UKJ      -0.158000
     13 C13         20.4250    -1.9430   -10.5730 ca         1 UKJ       0.191000
     14 F3          20.0120    -3.2040   -10.4300 f          1 UKJ      -0.160000
     15 C8          19.5470    -0.9210   -10.2600 ca         1 UKJ      -0.122000
     16 C5          24.3860    -0.5610    -9.5580 ca         1 UKJ      -0.222000
     17 C6          25.5430    -0.7710    -8.8380 ca         1 UKJ       0.070000
     18 C1          26.7720    -0.7500    -9.4860 ca         1 UKJ      -0.322500
     19 S1          28.2510    -1.0650    -8.5840 sy         1 UKJ       1.011500
     20 O1          29.2700    -1.5490    -9.4990 o          1 UKJ      -0.484000
     21 O2          27.9280    -1.7880    -7.3660 o          1 UKJ      -0.484000
     22 C7          28.7730     0.6190    -8.0580 c3         1 UKJ       0.009300
     23 F1          27.7430     1.1790    -7.4050 f          1 UKJ      -0.093500
     24 F2          29.0260     1.3370    -9.1610 f          1 UKJ      -0.093500
     25 H1          27.8090    -0.5000   -11.3570 ha         1 UKJ       0.176000
     26 H2          21.6220     1.6840   -10.9990 ha         1 UKJ       0.158000
     27 H3          22.3690    -2.5370   -11.2780 ha         1 UKJ       0.155000
     28 H4          18.5500    -1.1480    -9.9080 ha         1 UKJ       0.157000
     29 H5          23.4350    -0.5950    -9.0450 ha         1 UKJ       0.146000
     30 H6          25.4720    -0.9650    -7.7770 ha         1 UKJ       0.151000
     31 H7          29.6560     0.5460    -7.4190 h3         1 UKJ       0.101700
@<TRIPOS>BOND
     1     1     2 1   
     2     2     3 1   
     3     2     4 1   
     4     4     5 ar  
     5     4     6 ar  
     6     5    18 ar  
     7     5    25 1   
     8     6     7 1   
     9     6    16 ar  
    10     7     8 1   
    11     8     9 ar  
    12     8    12 ar  
    13     9    10 ar  
    14     9    26 1   
    15    10    11 1   
    16    10    15 ar  
    17    12    13 ar  
    18    12    27 1   
    19    13    14 1   
    20    13    15 ar  
    21    15    28 1   
    22    16    17 ar  
    23    16    29 1   
    24    17    18 ar  
    25    17    30 1   
    26    18    19 1   
    27    19    20 2   
    28    19    21 2   
    29    19    22 1   
    30    22    23 1   
    31    22    24 1   
    32    22    31 1   
@<TRIPOS>SUBSTRUCTURE
     1 UKJ         1 TEMP              0 ****  ****    0 ROOT
