@<TRIPOS>MOLECULE
UKJ
   31    32     1     0     0
SMALL
No Charge or Current Charge


@<TRIPOS>ATOM
      1 O5          25.0470     1.1020   -13.3820 o          1 UKJ      -0.379000
      2 N1          25.6230     0.1040   -12.9320 no         1 UKJ       0.704200
      3 O4          26.3570    -0.6270   -13.6090 o          1 UKJ      -0.379000
      4 C3          25.6030    -0.1170   -11.4650 ca         1 UKJ      -0.233200
      5 C2          26.7780    -0.5520   -10.8160 ca         1 UKJ       0.087000
      6 C4          24.4260     0.0840   -10.7160 ca         1 UKJ       0.259100
      7 O3          23.2590     0.4760   -11.3360 os         1 UKJ      -0.210200
      8 C11         22.0360    -0.0900   -11.0540 ca         1 UKJ       0.107100
      9 C10         20.8870     0.7150   -11.1210 ca         1 UKJ      -0.094000
     10 C9          19.6230     0.1620   -10.8520 ca         1 UKJ       0.009100
     11 Br1         18.0610     1.2620   -10.9350 br         1 UKJ      -0.057100
     12 C12         21.9190    -1.4580   -10.7380 ca         1 UKJ      -0.158000
     13 C13         20.6540    -2.0040   -10.4700 ca         1 UKJ       0.191000
     14 F3          20.5420    -3.3140   -10.1630 f          1 UKJ      -0.160000
     15 C8          19.5050    -1.1990   -10.5230 ca         1 UKJ      -0.122000
     16 C5          24.4380    -0.1150    -9.3240 ca         1 UKJ      -0.222000
     17 C6          25.6070    -0.5360    -8.6740 ca         1 UKJ       0.070000
     18 C1          26.7760    -0.7620    -9.4220 ca         1 UKJ      -0.322500
     19 S1          28.2850    -1.2970    -8.5920 sy         1 UKJ       1.011500
     20 O1          29.1370    -1.9720    -9.5820 o          1 UKJ      -0.484000
     21 O2          27.9060    -1.9690    -7.3410 o          1 UKJ      -0.484000
     22 C7          29.1100     0.2680    -8.1410 c3         1 UKJ       0.009300
     23 F1          28.3230     1.0150    -7.3280 f          1 UKJ      -0.093500
     24 F2          29.3720     1.0130    -9.2430 f          1 UKJ      -0.093500
     25 H1          27.6900    -0.7140   -11.3930 ha         1 UKJ       0.176000
     26 H2          20.9780     1.7680   -11.3780 ha         1 UKJ       0.158000
     27 H3          22.7950    -2.0990   -10.7030 ha         1 UKJ       0.155000
     28 H4          18.5300    -1.6320   -10.3150 ha         1 UKJ       0.157000
     29 H5          23.5370     0.0580    -8.7420 ha         1 UKJ       0.146000
     30 H6          25.5950    -0.6850    -7.5940 ha         1 UKJ       0.151000
     31 H7          30.0390     0.0040    -7.6310 h3         1 UKJ       0.101700
@<TRIPOS>BOND
     1     1     2 1   
     2     2     3 1   
     3     2     4 1   
     4     4     5 ar  
     5     4     6 ar  
     6     5    18 ar  
     7     5    25 1   
     8     6     7 1   
     9     6    16 ar  
    10     7     8 1   
    11     8     9 ar  
    12     8    12 ar  
    13     9    10 ar  
    14     9    26 1   
    15    10    11 1   
    16    10    15 ar  
    17    12    13 ar  
    18    12    27 1   
    19    13    14 1   
    20    13    15 ar  
    21    15    28 1   
    22    16    17 ar  
    23    16    29 1   
    24    17    18 ar  
    25    17    30 1   
    26    18    19 1   
    27    19    20 2   
    28    19    21 2   
    29    19    22 1   
    30    22    23 1   
    31    22    24 1   
    32    22    31 1   
@<TRIPOS>SUBSTRUCTURE
     1 UKJ         1 TEMP              0 ****  ****    0 ROOT
