@<TRIPOS>MOLECULE
UKK
   24    25     1     0     0
SMALL
No Charge or Current Charge


@<TRIPOS>ATOM
      1 C10         23.7500   -13.3700    -4.9620 ca         1 UKK      -0.131000
      2 C13         24.6100   -11.3340    -6.7040 ca         1 UKK      -0.094500
      3 C02         19.2450   -14.1370    -2.5970 ca         1 UKK       0.208000
      4 C03         19.1840   -14.8530    -3.8280 ca         1 UKK       0.307900
      5 C05         20.7930   -13.5180    -4.8240 ca         1 UKK       0.534300
      6 C06         20.9140   -12.7410    -3.6520 ca         1 UKK      -0.172000
      7 C07         20.1360   -13.0540    -2.5220 ca         1 UKK      -0.116000
      8 C09         22.8420   -12.7870    -5.8690 ca         1 UKK       0.111100
      9 C11         25.0840   -12.9260    -4.9210 ca         1 UKK      -0.094500
     10 C12         25.5120   -11.9070    -5.7890 ca         1 UKK      -0.122000
     11 C14         23.2770   -11.7790    -6.7450 ca         1 UKK      -0.131000
     12 N04         19.9330   -14.5540    -4.9190 nb         1 UKK      -0.655000
     13 O08         21.5350   -13.2100    -5.9390 os         1 UKK      -0.360400
     14 H1          23.4290   -14.1670    -4.2960 ha         1 UKK       0.129500
     15 H2          24.9440   -10.5490    -7.3790 ha         1 UKK       0.115500
     16 H3          18.5050   -15.6980    -3.9380 h4         1 UKK       0.022100
     17 H4          21.6010   -11.9000    -3.6240 ha         1 UKK       0.135000
     18 H5          20.2230   -12.4640    -1.6120 ha         1 UKK       0.119000
     19 H6          25.7850   -13.3730    -4.2190 ha         1 UKK       0.115500
     20 H7          26.5440   -11.5640    -5.7570 ha         1 UKK       0.116000
     21 H8          22.5780   -11.3390    -7.4530 ha         1 UKK       0.129500
     22 H9          18.5100   -13.8970    -0.6430 hn         1 UKK       0.446000
     23 H10         17.7840   -15.2150    -1.5340 hn         1 UKK       0.446000
     24 N01         18.4690   -14.4600    -1.4930 nv         1 UKK      -1.058000
@<TRIPOS>BOND
     1     1     8 ar  
     2     1     9 ar  
     3     1    14 1   
     4     2    10 ar  
     5     2    11 ar  
     6     2    15 1   
     7     3     4 ar  
     8     3     7 ar  
     9     3    24 1   
    10     4    12 ar  
    11     4    16 1   
    12     5     6 ar  
    13     5    12 ar  
    14     5    13 1   
    15     6     7 ar  
    16     6    17 1   
    17     7    18 1   
    18     8    11 ar  
    19     8    13 1   
    20     9    10 ar  
    21     9    19 1   
    22    10    20 1   
    23    11    21 1   
    24    22    24 1   
    25    23    24 1   
@<TRIPOS>SUBSTRUCTURE
     1 UKK         1 TEMP              0 ****  ****    0 ROOT
