@<TRIPOS>MOLECULE
UKK
   24    25     1     0     0
SMALL
bcc


@<TRIPOS>ATOM
      1 C10         23.8550   -13.4830    -5.0180 ca         1 UKK      -0.149000
      2 C13         24.4570   -11.2760    -6.5980 ca         1 UKK      -0.112500
      3 C02         19.2720   -14.1060    -2.6000 ca         1 UKK       0.004300
      4 C03         19.2170   -14.8220    -3.7960 ca         1 UKK       0.373200
      5 C05         20.8930   -13.6210    -4.7540 ca         1 UKK       0.599600
      6 C06         21.0350   -12.8210    -3.6240 ca         1 UKK      -0.255300
      7 C07         20.2180   -13.0770    -2.5410 ca         1 UKK      -0.134000
      8 C09         22.8770   -12.9010    -5.8160 ca         1 UKK       0.111100
      9 C11         25.1340   -12.9450    -5.0120 ca         1 UKK      -0.112500
     10 C12         25.4410   -11.8420    -5.8000 ca         1 UKK      -0.140000
     11 C14         23.1700   -11.7980    -6.6060 ca         1 UKK      -0.149000
     12 N04         20.0090   -14.5860    -4.8340 nb         1 UKK      -0.655000
     13 O08         21.6160   -13.4280    -5.8950 os         1 UKK      -0.360400
     14 H1          23.6250   -14.3490    -4.4100 ha         1 UKK       0.147500
     15 H2          24.6860   -10.4180    -7.2160 ha         1 UKK       0.133500
     16 H3          18.4970   -15.6270    -3.9120 h4         1 UKK       0.022100
     17 H4          21.7530   -12.0130    -3.5820 ha         1 UKK       0.153000
     18 H5          20.3060   -12.4700    -1.6470 ha         1 UKK       0.137000
     19 H6          25.8960   -13.3970    -4.3910 ha         1 UKK       0.133500
     20 H7          26.4410   -11.4310    -5.7930 ha         1 UKK       0.134000
     21 H8          22.3980   -11.3570    -7.2230 ha         1 UKK       0.147500
     22 H9          18.2910   -13.6720    -0.8820 hn         1 UKK       0.390800
     23 H10         17.6270   -14.9260    -1.7490 hn         1 UKK       0.390800
     24 N01         18.4750   -14.4300    -1.5210 nv         1 UKK      -0.809200
@<TRIPOS>BOND
     1     1     8 ar  
     2     1     9 ar  
     3     1    14 1   
     4     2    10 ar  
     5     2    11 ar  
     6     2    15 1   
     7     3     4 ar  
     8     3     7 ar  
     9     3    24 1   
    10     4    12 ar  
    11     4    16 1   
    12     5     6 ar  
    13     5    12 ar  
    14     5    13 1   
    15     6     7 ar  
    16     6    17 1   
    17     7    18 1   
    18     8    11 ar  
    19     8    13 1   
    20     9    10 ar  
    21     9    19 1   
    22    10    20 1   
    23    11    21 1   
    24    22    24 1   
    25    23    24 1   
@<TRIPOS>SUBSTRUCTURE
     1 UKK         1 TEMP              0 ****  ****    0 ROOT
