@<TRIPOS>MOLECULE
UKM
   18    17     1     0     0
SMALL
abcg2


@<TRIPOS>ATOM
      1 C01         99.8970    25.0250    56.3510 c3         1 UKM      -0.078700
      2 C02         98.4190    25.2350    56.6150 c3         1 UKM      -0.040400
      3 C03         97.6640    23.9410    56.9020 c3         1 UKM      -0.069400
      4 C08         96.1660    24.1750    57.0350 c3         1 UKM      -0.088100
      5 O05        102.1700    26.2090    55.8510 o          1 UKM      -0.687533
      6 O06        100.4920    27.4890    57.1260 o          1 UKM      -0.687533
      7 O07        100.1610    27.0820    54.7090 o          1 UKM      -0.687533
      8 O09        100.4980    24.4390    57.4690 oh         1 UKM      -0.653000
      9 S04        100.7480    26.6000    55.9750 s6         1 UKM       1.286600
     10 H1         100.0230    24.4090    55.4490 h2         1 UKM       0.032700
     11 H2          98.2910    25.9300    57.4500 hc         1 UKM       0.052700
     12 H3          97.9860    25.7180    55.7360 hc         1 UKM       0.052700
     13 H4          97.8510    23.2210    56.0990 hc         1 UKM       0.034200
     14 H5          98.0430    23.4840    57.8180 hc         1 UKM       0.034200
     15 H6          95.6370    23.2510    57.2700 hc         1 UKM       0.018700
     16 H7          95.9470    24.8920    57.8280 hc         1 UKM       0.018700
     17 H8          95.7440    24.5720    56.1090 hc         1 UKM       0.018700
     18 H9         101.4300    24.2940    57.2720 ho         1 UKM       0.443000
@<TRIPOS>BOND
     1     1     2 1   
     2     1     8 1   
     3     1     9 1   
     4     1    10 1   
     5     2     3 1   
     6     2    11 1   
     7     2    12 1   
     8     3     4 1   
     9     3    13 1   
    10     3    14 1   
    11     4    15 1   
    12     4    16 1   
    13     4    17 1   
    14     5     9 1   
    15     6     9 1   
    16     7     9 1   
    17     8    18 1   
@<TRIPOS>SUBSTRUCTURE
     1 UKM         1 TEMP              0 ****  ****    0 ROOT
