@<TRIPOS>MOLECULE
UKM
   18    17     1     0     0
SMALL
No Charge or Current Charge


@<TRIPOS>ATOM
      1 C01         99.9330    25.0250    56.3970 c3         1 UKM      -0.078700
      2 C02         98.4170    25.2430    56.6640 c3         1 UKM      -0.040400
      3 C03         97.6160    23.9300    56.8350 c3         1 UKM      -0.069400
      4 C08         96.1080    24.1660    57.0490 c3         1 UKM      -0.088100
      5 O05        102.2160    26.2220    55.8140 o          1 UKM      -0.687533
      6 O06        100.5000    27.5660    56.9750 o          1 UKM      -0.687533
      7 O07        100.1980    26.9650    54.5950 o          1 UKM      -0.687533
      8 O09        100.5620    24.3760    57.5470 oh         1 UKM      -0.653000
      9 S04        100.8000    26.6160    55.8920 s6         1 UKM       1.286600
     10 H1         100.0520    24.3690    55.5280 h2         1 UKM       0.032700
     11 H2          98.2890    25.8660    57.5590 hc         1 UKM       0.052700
     12 H3          97.9840    25.8040    55.8270 hc         1 UKM       0.052700
     13 H4          97.7560    23.3030    55.9460 hc         1 UKM       0.034200
     14 H5          98.0090    23.3660    57.6900 hc         1 UKM       0.034200
     15 H6          95.5850    23.2090    57.1650 hc         1 UKM       0.018700
     16 H7          95.9340    24.7640    57.9510 hc         1 UKM       0.018700
     17 H8          95.6720    24.6930    56.1920 hc         1 UKM       0.018700
     18 H9         101.5350    24.4830    57.4390 ho         1 UKM       0.443000
@<TRIPOS>BOND
     1     1     2 1   
     2     1     8 1   
     3     1     9 1   
     4     1    10 1   
     5     2     3 1   
     6     2    11 1   
     7     2    12 1   
     8     3     4 1   
     9     3    13 1   
    10     3    14 1   
    11     4    15 1   
    12     4    16 1   
    13     4    17 1   
    14     5     9 1   
    15     6     9 1   
    16     7     9 1   
    17     8    18 1   
@<TRIPOS>SUBSTRUCTURE
     1 UKM         1 TEMP              0 ****  ****    0 ROOT
