@<TRIPOS>MOLECULE
UKN
   28    29     1     0     0
SMALL
abcg2


@<TRIPOS>ATOM
      1 C15          6.7820     7.0620    21.7270 ca         1 UKN      -0.073000
      2 C16          5.6440     9.0930    21.1240 ca         1 UKN      -0.073000
      3 C17          5.7150     6.6960    22.5370 ca         1 UKN      -0.106500
      4 C18          4.5670     8.7400    21.9250 ca         1 UKN      -0.106500
      5 C19          4.6160     7.5400    22.6230 ca         1 UKN       0.139000
      6 C1           7.2900     7.1040    16.8120 cc         1 UKN      -0.011600
      7 C2           7.6560     6.1330    15.9500 cd         1 UKN       0.039300
      8 C3           7.8030     7.1960    18.2170 c          1 UKN       0.609300
      9 N4           6.4000     8.0690    16.3990 ns         1 UKN      -0.504600
     10 C5           7.1290     6.0830    14.5890 c          1 UKN       0.567200
     11 F6           8.5260     5.1760    16.2630 f          1 UKN      -0.110500
     12 O7           7.5550     8.4030    18.7170 os         1 UKN      -0.462100
     13 O8           8.3550     6.2920    18.7910 o          1 UKN      -0.433000
     14 C9           5.8340     8.1220    15.1520 c          1 UKN       0.621000
     15 N10          6.2430     7.1070    14.3070 ns         1 UKN      -0.467500
     16 O11          7.4270     5.2320    13.7700 o          1 UKN      -0.484000
     17 O13          5.0400     8.9820    14.8130 o          1 UKN      -0.539000
     18 C14          6.7580     8.2590    21.0130 ca         1 UKN      -0.141300
     19 CL20         3.2630     7.0860    23.6360 cl         1 UKN      -0.201000
     20 H25          7.6420     6.4090    21.6500 ha         1 UKN       0.126500
     21 H26          5.6180    10.0300    20.5810 ha         1 UKN       0.126500
     22 H27          5.7360     5.7680    23.0930 ha         1 UKN       0.136000
     23 H28          3.7060     9.3880    22.0120 ha         1 UKN       0.136000
     24 H21          6.1400     8.7960    17.0520 hn         1 UKN       0.482000
     25 H22          5.8430     7.1190    13.3760 hn         1 UKN       0.352500
     26 H24          8.8060     8.0990    20.3560 h1         1 UKN       0.078200
     27 H23          8.0880     9.7170    20.1530 h1         1 UKN       0.078200
     28 C12          7.8980     8.6480    20.1220 c3         1 UKN       0.223900
@<TRIPOS>BOND
     1     1     3 ar  
     2     1    18 ar  
     3     1    20 1   
     4     2     4 ar  
     5     2    18 ar  
     6     2    21 1   
     7     3     5 ar  
     8     3    22 1   
     9     4     5 ar  
    10     4    23 1   
    11     5    19 1   
    12     6     7 2   
    13     6     8 1   
    14     6     9 1   
    15     7    10 1   
    16     7    11 1   
    17     8    12 1   
    18     8    13 2   
    19     9    14 1   
    20     9    24 1   
    21    10    15 1   
    22    10    16 2   
    23    12    28 1   
    24    14    15 1   
    25    14    17 2   
    26    15    25 1   
    27    18    28 1   
    28    26    28 1   
    29    27    28 1   
@<TRIPOS>SUBSTRUCTURE
     1 UKN         1 TEMP              0 ****  ****    0 ROOT
