@<TRIPOS>MOLECULE
UKN
   28    29     1     0     0
SMALL
No Charge or Current Charge


@<TRIPOS>ATOM
      1 C15          7.0430     7.2390    21.9290 ca         1 UKN      -0.073000
      2 C16          5.4650     8.7890    20.9110 ca         1 UKN      -0.073000
      3 C17          6.0140     6.7260    22.7380 ca         1 UKN      -0.106500
      4 C18          4.4380     8.2750    21.7210 ca         1 UKN      -0.106500
      5 C19          4.7130     7.2440    22.6330 ca         1 UKN       0.139000
      6 C1           7.1960     7.1750    16.8410 cc         1 UKN      -0.011600
      7 C2           7.1930     5.9930    16.1240 cd         1 UKN       0.039300
      8 C3           7.6590     7.2970    18.2590 c          1 UKN       0.609300
      9 N4           6.7340     8.3300    16.2000 ns         1 UKN      -0.504600
     10 C5           6.7070     5.9860    14.7140 c          1 UKN       0.567200
     11 F6           7.6150     4.8210    16.6420 f          1 UKN      -0.110500
     12 O7           7.5610     8.5830    18.7430 os         1 UKN      -0.462100
     13 O8           8.0890     6.3650    18.9270 o          1 UKN      -0.433000
     14 C9           6.2760     8.3980    14.9180 c          1 UKN       0.621000
     15 N10          6.2940     7.2110    14.2560 ns         1 UKN      -0.467500
     16 O11          6.6650     4.9960    13.9980 o          1 UKN      -0.484000
     17 O13          5.8870     9.4320    14.4140 o          1 UKN      -0.539000
     18 C14          6.7730     8.2730    21.0100 ca         1 UKN      -0.141300
     19 Cl20         3.4270     6.6010    23.6460 cl         1 UKN      -0.201000
     20 H25          8.0470     6.8280    22.0150 ha         1 UKN       0.126500
     21 H26          5.2450     9.5870    20.2040 ha         1 UKN       0.126500
     22 H27          6.2230     5.9270    23.4450 ha         1 UKN       0.136000
     23 H28          3.4300     8.6740    21.6420 ha         1 UKN       0.136000
     24 H21          6.7250     9.2160    16.7030 hn         1 UKN       0.482000
     25 H22          5.9600     7.2360    13.3060 hn         1 UKN       0.352500
     26 H24          8.8560     8.3950    20.3930 h1         1 UKN       0.078200
     27 H23          7.9590     9.9150    20.3020 h1         1 UKN       0.078200
     28 C12          7.8850     8.8340    20.1250 c3         1 UKN       0.223900
@<TRIPOS>BOND
     1     1     3 ar  
     2     1    18 ar  
     3     1    20 1   
     4     2     4 ar  
     5     2    18 ar  
     6     2    21 1   
     7     3     5 ar  
     8     3    22 1   
     9     4     5 ar  
    10     4    23 1   
    11     5    19 1   
    12     6     7 2   
    13     6     8 1   
    14     6     9 1   
    15     7    10 1   
    16     7    11 1   
    17     8    12 1   
    18     8    13 2   
    19     9    14 1   
    20     9    24 1   
    21    10    15 1   
    22    10    16 2   
    23    12    28 1   
    24    14    15 1   
    25    14    17 2   
    26    15    25 1   
    27    18    28 1   
    28    26    28 1   
    29    27    28 1   
@<TRIPOS>SUBSTRUCTURE
     1 UKN         1 TEMP              0 ****  ****    0 ROOT
