@<TRIPOS>MOLECULE
UKP
   91    93     1     0     0
SMALL
No Charge or Current Charge


@<TRIPOS>ATOM
      1 N           31.6240     9.6790    27.6040 n7         1 UKP      -0.936300
      2 CA          30.1890     9.7620    28.0190 c3         1 UKP       0.186500
      3 CX          32.3260     4.6240    26.3790 ce         1 UKP       0.656800
      4 O           30.6340     9.0600    30.3150 o          1 UKP      -0.596100
      5 CB          29.3860     8.6620    27.2750 c3         1 UKP      -0.029100
      6 CG1         29.8150     7.2370    27.6190 ca         1 UKP      -0.092300
      7 CD1         30.8260     6.5980    26.8740 ca         1 UKP      -0.050000
      8 CE1         31.2250     5.2720    27.1670 ca         1 UKP      -0.141900
      9 CZ          30.6050     4.6090    28.2530 ca         1 UKP      -0.089000
     10 CE2         29.5930     5.2410    28.9950 ca         1 UKP      -0.116000
     11 CD2         29.1940     6.5480    28.6760 ca         1 UKP      -0.085000
     12 NX1         32.4050     3.2760    26.3790 nv         1 UKP      -1.086200
     13 NX2         33.1270     5.2700    25.6370 n2         1 UKP      -0.819100
     14 C           29.9180     9.7210    29.5700 c          1 UKP       0.586100
     15 C6          31.7110    12.2570    28.6700 ca         1 UKP      -0.281500
     16 C7          31.7060    12.7170    30.0430 ca         1 UKP       0.019700
     17 C8          30.9720    13.8800    30.3730 ca         1 UKP      -0.141500
     18 C9          30.2400    14.5990    29.4280 ca         1 UKP      -0.019300
     19 C10         30.2440    14.1590    28.1060 ca         1 UKP      -0.141500
     20 C11         30.9550    13.0120    27.6980 ca         1 UKP       0.019700
     21 C12         32.5290    12.0780    31.1970 c3         1 UKP      -0.036900
     22 C13         31.9960    12.3310    32.6340 c3         1 UKP      -0.080850
     23 C14         34.0120    12.5190    31.1240 c3         1 UKP      -0.080850
     24 C15         30.8840    12.6990    26.1770 c3         1 UKP      -0.036900
     25 C16         29.4390    12.7170    25.6090 c3         1 UKP      -0.080850
     26 C17         31.7960    13.6580    25.3790 c3         1 UKP      -0.080850
     27 C18         29.5070    15.8900    29.8110 c3         1 UKP      -0.025400
     28 C19         30.5110    17.0160    30.1390 c3         1 UKP      -0.085600
     29 C20         28.4970    15.6790    30.9620 c3         1 UKP      -0.085600
     30 S           32.7350    10.8190    28.0990 sy         1 UKP       1.200600
     31 OS1         33.4200    10.1370    29.1910 o          1 UKP      -0.545000
     32 OS2         33.4610    11.1850    26.8810 o          1 UKP      -0.545000
     33 N1          28.8890    10.5400    30.1050 n          1 UKP      -0.408800
     34 C1          28.6520    10.5520    31.5700 c6         1 UKP       0.079000
     35 C2          27.9380    11.8280    32.0770 c6         1 UKP       0.071500
     36 N2          26.7240    12.2120    31.3000 n          1 UKP      -0.419800
     37 C4          26.8970    12.0990    29.8230 c6         1 UKP       0.071500
     38 C5          27.6460    10.8370    29.3400 c6         1 UKP       0.079000
     39 C21         25.7850    13.1400    31.8170 c          1 UKP       0.604100
     40 O1          25.0490    13.7650    31.0620 o          1 UKP      -0.612100
     41 C22         25.6660    13.2980    33.3420 c3         1 UKP      -0.154400
     42 C23         24.5070    14.1950    33.8070 c3         1 UKP       0.159800
     43 N24         24.4580    14.2680    35.2810 n8         1 UKP      -1.006200
     44 HN1         32.0370     8.8860    28.0960 hn         1 UKP       0.539000
     45 HA1         29.7870    10.7140    27.6670 h1         1 UKP       0.061700
     46 HCB1        28.3170     8.7860    27.4850 hc         1 UKP       0.061200
     47 HCB2        29.4890     8.8310    26.1960 hc         1 UKP       0.061200
     48 HD11        31.2990     7.1370    26.0550 ha         1 UKP       0.141000
     49 HZ1         30.9070     3.6040    28.5390 ha         1 UKP       0.117000
     50 HE21        29.1210     4.7180    29.8230 ha         1 UKP       0.114000
     51 HD21        28.4090     7.0260    29.2580 ha         1 UKP       0.109000
     52 HX11        32.8210     2.8600    25.5540 hn         1 UKP       0.463500
     53 HX12        31.5860     2.7960    26.7350 hn         1 UKP       0.463500
     54 HX21        33.8990     4.6440    25.3850 hn         1 UKP       0.370400
     55 H81         30.9910    14.2780    31.3800 ha         1 UKP       0.116500
     56 H101        29.7060    14.7520    27.3730 ha         1 UKP       0.116500
     57 H121        32.4660    10.9910    31.1210 hc         1 UKP       0.071700
     58 H131        32.4820    11.6500    33.3430 hc         1 UKP       0.039033
     59 H132        32.2060    13.3530    32.9710 hc         1 UKP       0.039033
     60 H133        30.9170    12.1600    32.6940 hc         1 UKP       0.039033
     61 H141        34.6160    11.9700    31.8570 hc         1 UKP       0.039033
     62 H142        34.4420    12.3440    30.1320 hc         1 UKP       0.039033
     63 H143        34.1050    13.5910    31.3380 hc         1 UKP       0.039033
     64 H151        31.2280    11.6870    25.9590 hc         1 UKP       0.071700
     65 H161        29.4230    12.2830    24.6020 hc         1 UKP       0.039033
     66 H162        28.7600    12.1300    26.2370 hc         1 UKP       0.039033
     67 H163        29.0400    13.7350    25.5310 hc         1 UKP       0.039033
     68 H171        31.8060    13.3900    24.3160 hc         1 UKP       0.039033
     69 H172        31.4490    14.6950    25.4670 hc         1 UKP       0.039033
     70 H173        32.8270    13.6140    25.7500 hc         1 UKP       0.039033
     71 H181        28.9220    16.2330    28.9480 hc         1 UKP       0.054700
     72 H191        29.9850    17.9580    30.3370 hc         1 UKP       0.037533
     73 H192        31.1100    16.7660    31.0230 hc         1 UKP       0.037533
     74 H193        31.1940    17.1790    29.2960 hc         1 UKP       0.037533
     75 H201        27.9470    16.6050    31.1660 hc         1 UKP       0.037533
     76 H202        27.7670    14.9100    30.6920 hc         1 UKP       0.037533
     77 H203        28.9970    15.3710    31.8880 hc         1 UKP       0.037533
     78 H11         28.0350     9.6790    31.8270 h1         1 UKP       0.068200
     79 H12         29.6010    10.4390    32.1110 h1         1 UKP       0.068200
     80 H21         27.6880    11.6670    33.1340 h1         1 UKP       0.066450
     81 H22         28.6480    12.6650    32.0350 h1         1 UKP       0.066450
     82 H41         25.9140    12.1250    29.3310 h1         1 UKP       0.066450
     83 H42         27.4530    12.9800    29.4730 h1         1 UKP       0.066450
     84 H51         27.8470    10.9640    28.2700 h1         1 UKP       0.068200
     85 H52         26.9700     9.9750    29.4380 h1         1 UKP       0.068200
     86 H221        25.6080    12.2960    33.7830 hc         1 UKP       0.065200
     87 H222        26.6290    13.6570    33.7200 hc         1 UKP       0.065200
     88 H231        24.6330    15.2100    33.4000 h1         1 UKP       0.047200
     89 H232        23.5540    13.7890    33.4390 h1         1 UKP       0.047200
     90 H241        23.7040    14.9090    35.5600 hn         1 UKP       0.394500
     91 H242        25.3070    14.7350    35.6220 hn         1 UKP       0.394500
@<TRIPOS>BOND
     1     1     2 1   
     2     1    30 1   
     3     1    44 1   
     4     2     5 1   
     5     2    14 1   
     6     2    45 1   
     7     3     8 1   
     8     3    12 1   
     9     3    13 2   
    10     4    14 2   
    11     5     6 1   
    12     5    46 1   
    13     5    47 1   
    14     6     7 ar  
    15     6    11 ar  
    16     7     8 ar  
    17     7    48 1   
    18     8     9 ar  
    19     9    10 ar  
    20     9    49 1   
    21    10    11 ar  
    22    10    50 1   
    23    11    51 1   
    24    12    52 1   
    25    12    53 1   
    26    13    54 1   
    27    14    33 1   
    28    15    16 ar  
    29    15    20 ar  
    30    15    30 1   
    31    16    17 ar  
    32    16    21 1   
    33    17    18 ar  
    34    17    55 1   
    35    18    19 ar  
    36    18    27 1   
    37    19    20 ar  
    38    19    56 1   
    39    20    24 1   
    40    21    22 1   
    41    21    23 1   
    42    21    57 1   
    43    22    58 1   
    44    22    59 1   
    45    22    60 1   
    46    23    61 1   
    47    23    62 1   
    48    23    63 1   
    49    24    25 1   
    50    24    26 1   
    51    24    64 1   
    52    25    65 1   
    53    25    66 1   
    54    25    67 1   
    55    26    68 1   
    56    26    69 1   
    57    26    70 1   
    58    27    28 1   
    59    27    29 1   
    60    27    71 1   
    61    28    72 1   
    62    28    73 1   
    63    28    74 1   
    64    29    75 1   
    65    29    76 1   
    66    29    77 1   
    67    30    31 2   
    68    30    32 2   
    69    33    34 1   
    70    33    38 1   
    71    34    35 1   
    72    34    78 1   
    73    34    79 1   
    74    35    36 1   
    75    35    80 1   
    76    35    81 1   
    77    36    37 1   
    78    36    39 1   
    79    37    38 1   
    80    37    82 1   
    81    37    83 1   
    82    38    84 1   
    83    38    85 1   
    84    39    40 2   
    85    39    41 1   
    86    41    42 1   
    87    41    86 1   
    88    41    87 1   
    89    42    43 1   
    90    42    88 1   
    91    42    89 1   
    92    43    90 1   
    93    43    91 1   
@<TRIPOS>SUBSTRUCTURE
     1 UKP         1 TEMP              0 ****  ****    0 ROOT
