@<TRIPOS>MOLECULE
UKP
   91    93     1     0     0
SMALL
abcg2


@<TRIPOS>ATOM
      1 N           31.3640     9.7020    28.1940 n7         1 UKP      -0.936300
      2 CA          29.9170     9.6180    28.1860 c3         1 UKP       0.186500
      3 CX          32.9640     4.9350    27.4040 ce         1 UKP       0.656800
      4 O           30.1670     8.9280    30.4550 o          1 UKP      -0.596100
      5 CB          29.3970     8.4400    27.3290 c3         1 UKP      -0.029100
      6 CG1         29.8760     7.0890    27.7780 ca         1 UKP      -0.092300
      7 CD1         31.1310     6.6230    27.3970 ca         1 UKP      -0.050000
      8 CE1         31.6060     5.3850    27.8300 ca         1 UKP      -0.141900
      9 CZ          30.7990     4.5980    28.6550 ca         1 UKP      -0.089000
     10 CE2         29.5440     5.0540    29.0410 ca         1 UKP      -0.116000
     11 CD2         29.0850     6.2900    28.6060 ca         1 UKP      -0.085000
     12 NX1         33.1480     3.5770    27.3640 nv         1 UKP      -1.086200
     13 NX2         33.8690     5.8140    27.1530 n2         1 UKP      -0.819100
     14 C           29.4480     9.5110    29.6420 c          1 UKP       0.586100
     15 C6          31.4610    12.4100    28.3080 ca         1 UKP      -0.281500
     16 C7          31.7690    12.6050    29.6790 ca         1 UKP       0.019700
     17 C8          31.2400    13.7220    30.3170 ca         1 UKP      -0.141500
     18 C9          30.4360    14.6470    29.6650 ca         1 UKP      -0.019300
     19 C10         30.1180    14.4040    28.3390 ca         1 UKP      -0.141500
     20 C11         30.5920    13.3000    27.6290 ca         1 UKP       0.019700
     21 C12         32.6960    11.7320    30.5230 c3         1 UKP      -0.036900
     22 C13         32.0970    11.3750    31.8890 c3         1 UKP      -0.080850
     23 C14         34.0550    12.4300    30.6850 c3         1 UKP      -0.080850
     24 C15         30.1410    13.1800    26.1760 c3         1 UKP      -0.036900
     25 C16         28.7080    13.6700    25.9400 c3         1 UKP      -0.080850
     26 C17         31.1250    13.9170    25.2560 c3         1 UKP      -0.080850
     27 C18         29.9130    15.8760    30.3770 c3         1 UKP      -0.025400
     28 C19         31.0540    16.7070    30.9770 c3         1 UKP      -0.085600
     29 C20         28.8710    15.5120    31.4430 c3         1 UKP      -0.085600
     30 S           32.1540    10.9470    27.5140 sy         1 UKP       1.200600
     31 OS1         33.5460    10.7930    27.8730 o          1 UKP      -0.545000
     32 OS2         31.8520    10.9540    26.1020 o          1 UKP      -0.545000
     33 N1          28.2470    10.0290    29.9670 n          1 UKP      -0.408800
     34 C1          27.8260    10.0850    31.3640 c6         1 UKP       0.079000
     35 C2          27.8010    11.5400    31.8380 c6         1 UKP       0.071500
     36 N2          26.9790    12.3540    30.9460 n          1 UKP      -0.419800
     37 C4          27.3450    12.2550    29.5380 c6         1 UKP       0.071500
     38 C5          27.3580    10.7970    29.0980 c6         1 UKP       0.079000
     39 C21         26.0360    13.2450    31.3490 c          1 UKP       0.604100
     40 O1          25.4040    13.9280    30.5380 o          1 UKP      -0.612100
     41 C22         25.7920    13.3780    32.8410 c3         1 UKP      -0.154400
     42 C23         24.8000    14.4790    33.1850 c3         1 UKP       0.159800
     43 N24         24.5990    14.5250    34.6390 n8         1 UKP      -1.006200
     44 HN1         31.8840     9.1170    28.8310 hn         1 UKP       0.539000
     45 HA1         29.5430    10.5320    27.7340 h1         1 UKP       0.061700
     46 HCB1        28.3060     8.4700    27.3410 hc         1 UKP       0.061200
     47 HCB2        29.7150     8.6340    26.3040 hc         1 UKP       0.061200
     48 HD11        31.7550     7.2280    26.7560 ha         1 UKP       0.141000
     49 HZ1         31.1520     3.6400    29.0100 ha         1 UKP       0.117000
     50 HE21        28.9220     4.4410    29.6800 ha         1 UKP       0.114000
     51 HD21        28.1060     6.6420    28.9100 ha         1 UKP       0.109000
     52 HX11        34.0120     3.2370    26.9680 hn         1 UKP       0.463500
     53 HX12        32.3480     2.9850    27.2020 hn         1 UKP       0.463500
     54 HX21        34.7330     5.3670    26.8440 hn         1 UKP       0.370400
     55 H81         31.4820    13.8810    31.3570 ha         1 UKP       0.116500
     56 H101        29.4670    15.1030    27.8360 ha         1 UKP       0.116500
     57 H121        32.8840    10.7940    30.0140 hc         1 UKP       0.071700
     58 H131        32.7690    10.6840    32.4030 hc         1 UKP       0.039033
     59 H132        31.9740    12.2490    32.5300 hc         1 UKP       0.039033
     60 H133        31.1310    10.8860    31.7760 hc         1 UKP       0.039033
     61 H141        34.7360    11.7960    31.2580 hc         1 UKP       0.039033
     62 H142        34.5070    12.6320    29.7130 hc         1 UKP       0.039033
     63 H143        33.9430    13.3770    31.2160 hc         1 UKP       0.039033
     64 H151        30.1530    12.1320    25.9010 hc         1 UKP       0.071700
     65 H161        28.4000    13.3830    24.9330 hc         1 UKP       0.039033
     66 H162        28.0120    13.2170    26.6490 hc         1 UKP       0.039033
     67 H163        28.6130    14.7550    26.0100 hc         1 UKP       0.039033
     68 H171        30.8350    13.7910    24.2110 hc         1 UKP       0.039033
     69 H172        31.1250    14.9870    25.4830 hc         1 UKP       0.039033
     70 H173        32.1400    13.5400    25.3780 hc         1 UKP       0.039033
     71 H181        29.4160    16.4920    29.6220 hc         1 UKP       0.054700
     72 H191        30.6600    17.6270    31.4140 hc         1 UKP       0.037533
     73 H192        31.5730    16.1560    31.7670 hc         1 UKP       0.037533
     74 H193        31.7880    16.9750    30.2150 hc         1 UKP       0.037533
     75 H201        28.5240    16.4120    31.9550 hc         1 UKP       0.037533
     76 H202        28.0080    15.0240    30.9920 hc         1 UKP       0.037533
     77 H203        29.2940    14.8380    32.1910 hc         1 UKP       0.037533
     78 H11         26.8290     9.6490    31.4490 h1         1 UKP       0.068200
     79 H12         28.5190     9.5080    31.9680 h1         1 UKP       0.068200
     80 H21         27.4080    11.5710    32.8470 h1         1 UKP       0.066450
     81 H22         28.8220    11.9350    31.8490 h1         1 UKP       0.066450
     82 H41         26.6330    12.8270    28.9520 h1         1 UKP       0.066450
     83 H42         28.3410    12.6830    29.3950 h1         1 UKP       0.066450
     84 H51         27.6410    10.7110    28.0560 h1         1 UKP       0.068200
     85 H52         26.3550    10.3750    29.2000 h1         1 UKP       0.068200
     86 H221        25.4270    12.4240    33.2320 hc         1 UKP       0.065200
     87 H222        26.7430    13.5730    33.3460 hc         1 UKP       0.065200
     88 H231        25.1570    15.4280    32.7680 h1         1 UKP       0.047200
     89 H232        23.8390    14.2650    32.7150 h1         1 UKP       0.047200
     90 H241        23.9230    15.2450    34.8640 hn         1 UKP       0.394500
     91 H242        25.4640    14.8050    35.0930 hn         1 UKP       0.394500
@<TRIPOS>BOND
     1     1     2 1   
     2     1    30 1   
     3     1    44 1   
     4     2     5 1   
     5     2    14 1   
     6     2    45 1   
     7     3     8 1   
     8     3    12 1   
     9     3    13 2   
    10     4    14 2   
    11     5     6 1   
    12     5    46 1   
    13     5    47 1   
    14     6     7 ar  
    15     6    11 ar  
    16     7     8 ar  
    17     7    48 1   
    18     8     9 ar  
    19     9    10 ar  
    20     9    49 1   
    21    10    11 ar  
    22    10    50 1   
    23    11    51 1   
    24    12    52 1   
    25    12    53 1   
    26    13    54 1   
    27    14    33 1   
    28    15    16 ar  
    29    15    20 ar  
    30    15    30 1   
    31    16    17 ar  
    32    16    21 1   
    33    17    18 ar  
    34    17    55 1   
    35    18    19 ar  
    36    18    27 1   
    37    19    20 ar  
    38    19    56 1   
    39    20    24 1   
    40    21    22 1   
    41    21    23 1   
    42    21    57 1   
    43    22    58 1   
    44    22    59 1   
    45    22    60 1   
    46    23    61 1   
    47    23    62 1   
    48    23    63 1   
    49    24    25 1   
    50    24    26 1   
    51    24    64 1   
    52    25    65 1   
    53    25    66 1   
    54    25    67 1   
    55    26    68 1   
    56    26    69 1   
    57    26    70 1   
    58    27    28 1   
    59    27    29 1   
    60    27    71 1   
    61    28    72 1   
    62    28    73 1   
    63    28    74 1   
    64    29    75 1   
    65    29    76 1   
    66    29    77 1   
    67    30    31 2   
    68    30    32 2   
    69    33    34 1   
    70    33    38 1   
    71    34    35 1   
    72    34    78 1   
    73    34    79 1   
    74    35    36 1   
    75    35    80 1   
    76    35    81 1   
    77    36    37 1   
    78    36    39 1   
    79    37    38 1   
    80    37    82 1   
    81    37    83 1   
    82    38    84 1   
    83    38    85 1   
    84    39    40 2   
    85    39    41 1   
    86    41    42 1   
    87    41    86 1   
    88    41    87 1   
    89    42    43 1   
    90    42    88 1   
    91    42    89 1   
    92    43    90 1   
    93    43    91 1   
@<TRIPOS>SUBSTRUCTURE
     1 UKP         1 TEMP              0 ****  ****    0 ROOT
