@<TRIPOS>MOLECULE
UKR
   79    83     1     0     0
SMALL
No Charge or Current Charge


@<TRIPOS>ATOM
      1 N1         -13.4730    35.4440     5.7550 n3         1 UKR      -0.726600
      2 C4         -16.2130    36.6770     0.7470 c6         1 UKR       0.170800
      3 C5         -15.1060    39.2940     1.4710 c6         1 UKR      -0.072900
      4 C6         -14.3340    37.9650     1.6620 c6         1 UKR       0.170800
      5 C7         -14.5530    35.5300     2.1530 c3         1 UKR       0.177800
      6 C8         -13.7010    35.4960     3.4470 c5         1 UKR      -0.066700
      7 C10        -11.7050    33.9790     3.2900 ca         1 UKR      -0.034300
      8 C13         -9.0660    33.7650     2.2850 ca         1 UKR      -0.160000
      9 C15        -11.4010    33.0730     2.2530 ca         1 UKR      -0.156000
     10 C17        -13.8780    35.6770     7.1620 c3         1 UKR       0.206800
     11 C20        -13.0880    36.1610     9.5740 c5         1 UKR      -0.047900
     12 C21        -11.7860    35.9330    10.3870 c5         1 UKR      -0.071400
     13 C22        -10.6540    35.9760     9.3140 c5         1 UKR      -0.071400
     14 C24        -14.4690    35.8520     4.7410 c5         1 UKR       0.171800
     15 C26        -15.5040    44.6890    -2.2540 ca         1 UKR       0.011500
     16 C28        -13.9910    46.4410    -1.5100 ca         1 UKR       0.217000
     17 S          -17.1460    43.2210    -0.5410 sy         1 UKR       1.065500
     18 O          -17.9380    42.9560    -1.7490 o          1 UKR      -0.528000
     19 C25        -15.9190    44.4860    -0.9210 ca         1 UKR      -0.292500
     20 C30        -15.3610    45.2620     0.1170 ca         1 UKR       0.011500
     21 C29        -14.3970    46.2410    -0.1830 ca         1 UKR      -0.169500
     22 C27        -14.5400    45.6700    -2.5440 ca         1 UKR      -0.169500
     23 C          -16.1320    41.7530    -0.2430 c3         1 UKR      -0.294400
     24 C1         -16.9650    40.4960     0.1220 c3         1 UKR      -0.045400
     25 C2         -16.1270    39.1950     0.3060 c6         1 UKR      -0.053700
     26 N          -15.2550    36.8110     1.8790 n3         1 UKR      -0.724600
     27 C3         -17.0430    37.9660     0.5390 c6         1 UKR      -0.072900
     28 C18        -12.8080    35.3750     8.2500 c5         1 UKR      -0.178000
     29 C23        -11.3900    35.9640     7.9370 c5         1 UKR      -0.047900
     30 C19        -12.7820    33.8320     8.5500 c          1 UKR       0.715000
     31 O2         -13.7630    33.3190     9.0730 o          1 UKR      -0.734500
     32 O1         -11.7900    33.1600     8.2970 o          1 UKR      -0.734500
     33 C16        -13.1410    34.0450     5.3750 c5         1 UKR       0.166800
     34 C9         -13.1490    34.0740     3.8090 c5         1 UKR      -0.028400
     35 C14        -10.0920    32.9690     1.7570 ca         1 UKR       0.145000
     36 F           -9.8190    32.0950     0.7640 f          1 UKR      -0.204000
     37 C12         -9.3520    34.6740     3.3150 ca         1 UKR      -0.090000
     38 C11        -10.6630    34.7810     3.8130 ca         1 UKR      -0.091000
     39 H2         -16.9050    35.8430     0.9330 h1         1 UKR       0.030950
     40 H3         -15.6720    36.4450    -0.1830 h1         1 UKR       0.030950
     41 H4         -14.3840    40.0980     1.2820 hc         1 UKR       0.045700
     42 H5         -15.6250    39.5500     2.4040 hc         1 UKR       0.045700
     43 H6         -13.7020    37.7860     0.7790 h1         1 UKR       0.030950
     44 H7         -13.6600    38.0940     2.5210 h1         1 UKR       0.030950
     45 H8         -15.3000    34.7280     2.2360 h1         1 UKR       0.029200
     46 H9         -13.9020    35.2720     1.3070 h1         1 UKR       0.029200
     47 H10        -12.8820    36.2090     3.3090 hc         1 UKR       0.054700
     48 H11         -8.0550    33.6780     1.8950 ha         1 UKR       0.118000
     49 H12        -12.1810    32.4470     1.8280 ha         1 UKR       0.118000
     50 H13        -14.1460    36.7380     7.2560 h1         1 UKR       0.021200
     51 H14        -14.7900    35.1090     7.3890 h1         1 UKR       0.021200
     52 H15        -13.2430    37.2300     9.3830 hc         1 UKR       0.028200
     53 H16        -13.9770    35.8050    10.1060 hc         1 UKR       0.028200
     54 H17        -11.8030    34.9640    10.8990 hc         1 UKR       0.024950
     55 H18        -11.6500    36.6960    11.1620 hc         1 UKR       0.024950
     56 H19         -9.9840    35.1150     9.4200 hc         1 UKR       0.024950
     57 H20        -10.0310    36.8720     9.4180 hc         1 UKR       0.024950
     58 H21        -14.7060    36.9240     4.7960 h1         1 UKR       0.030700
     59 H22        -15.4050    35.2830     4.8340 h1         1 UKR       0.030700
     60 H24        -15.6670    45.1120     1.1520 ha         1 UKR       0.142000
     61 H25        -13.9640    46.8420     0.6120 ha         1 UKR       0.139000
     62 H26        -14.2170    45.8320    -3.5690 ha         1 UKR       0.139000
     63 H27        -15.5560    41.5760    -1.1580 h1         1 UKR       0.093700
     64 H28        -15.4440    42.0110     0.5680 h1         1 UKR       0.093700
     65 H29        -17.7080    40.3310    -0.6690 hc         1 UKR       0.059700
     66 H30        -17.5350    40.6990     1.0380 hc         1 UKR       0.059700
     67 H31        -15.5750    39.0420    -0.6330 hc         1 UKR       0.040700
     68 H33        -17.6800    38.1330     1.4190 hc         1 UKR       0.045700
     69 H34        -17.7190    37.8300    -0.3160 hc         1 UKR       0.045700
     70 H35        -10.8430    35.3920     7.1790 hc         1 UKR       0.028200
     71 H36        -11.4740    36.9850     7.5450 hc         1 UKR       0.028200
     72 H38        -13.9070    33.3460     5.7410 h1         1 UKR       0.070200
     73 H39        -12.1770    33.7140     5.7820 h1         1 UKR       0.070200
     74 H40        -13.7870    33.2720     3.4200 hc         1 UKR       0.042700
     75 H41         -8.5620    35.2980     3.7280 ha         1 UKR       0.115000
     76 H42        -10.8710    35.4950     4.6070 ha         1 UKR       0.159000
     77 F1         -13.0650    47.3820    -1.7930 f          1 UKR      -0.175000
     78 O3         -17.7910    43.5600     0.7350 o          1 UKR      -0.528000
     79 H23        -15.9220    44.0930    -3.0650 ha         1 UKR       0.142000
@<TRIPOS>BOND
     1     1    10 1   
     2     1    14 1   
     3     1    33 1   
     4     2    26 1   
     5     2    27 1   
     6     2    39 1   
     7     2    40 1   
     8     3     4 1   
     9     3    25 1   
    10     3    41 1   
    11     3    42 1   
    12     4    26 1   
    13     4    43 1   
    14     4    44 1   
    15     5     6 1   
    16     5    26 1   
    17     5    45 1   
    18     5    46 1   
    19     6    14 1   
    20     6    34 1   
    21     6    47 1   
    22     7     9 ar  
    23     7    34 1   
    24     7    38 ar  
    25     8    35 ar  
    26     8    37 ar  
    27     8    48 1   
    28     9    35 ar  
    29     9    49 1   
    30    10    28 1   
    31    10    50 1   
    32    10    51 1   
    33    11    12 1   
    34    11    28 1   
    35    11    52 1   
    36    11    53 1   
    37    12    13 1   
    38    12    54 1   
    39    12    55 1   
    40    13    29 1   
    41    13    56 1   
    42    13    57 1   
    43    14    58 1   
    44    14    59 1   
    45    15    19 ar  
    46    15    22 ar  
    47    15    79 1   
    48    16    21 ar  
    49    16    22 ar  
    50    16    77 1   
    51    17    18 2   
    52    17    19 1   
    53    17    23 1   
    54    17    78 2   
    55    19    20 ar  
    56    20    21 ar  
    57    20    60 1   
    58    21    61 1   
    59    22    62 1   
    60    23    24 1   
    61    23    63 1   
    62    23    64 1   
    63    24    25 1   
    64    24    65 1   
    65    24    66 1   
    66    25    27 1   
    67    25    67 1   
    68    27    68 1   
    69    27    69 1   
    70    28    29 1   
    71    28    30 1   
    72    29    70 1   
    73    29    71 1   
    74    30    31 1   
    75    30    32 1   
    76    33    34 1   
    77    33    72 1   
    78    33    73 1   
    79    34    74 1   
    80    35    36 1   
    81    37    38 ar  
    82    37    75 1   
    83    38    76 1   
@<TRIPOS>SUBSTRUCTURE
     1 UKR         1 TEMP              0 ****  ****    0 ROOT
