@<TRIPOS>MOLECULE
UKR
   79    83     1     0     0
SMALL
abcg2


@<TRIPOS>ATOM
      1 N1         -13.3670    35.4140     5.6520 n3         1 UKR      -0.726600
      2 C4         -16.2930    36.7530     1.0130 c6         1 UKR       0.170800
      3 C5         -14.8510    39.2350     1.3070 c6         1 UKR      -0.072900
      4 C6         -14.2000    37.8600     1.3940 c6         1 UKR       0.170800
      5 C7         -14.5130    35.5650     2.1390 c3         1 UKR       0.177800
      6 C8         -13.5510    35.5720     3.3180 c5         1 UKR      -0.066700
      7 C10        -11.5840    33.9480     3.2480 ca         1 UKR      -0.034300
      8 C13         -8.9110    33.6110     2.4210 ca         1 UKR      -0.160000
      9 C15        -11.2830    33.1800     2.1230 ca         1 UKR      -0.156000
     10 C17        -13.8880    35.5940     7.0000 c3         1 UKR       0.206800
     11 C20        -13.4470    35.8330     9.4760 c5         1 UKR      -0.047900
     12 C21        -12.2130    35.9960    10.3720 c5         1 UKR      -0.071400
     13 C22        -11.0910    36.4740     9.4170 c5         1 UKR      -0.071400
     14 C24        -14.1710    36.0640     4.6240 c5         1 UKR       0.171800
     15 C26        -15.8370    44.6080    -2.1370 ca         1 UKR       0.011500
     16 C28        -14.1300    46.2400    -1.8360 ca         1 UKR       0.217000
     17 S          -16.9720    43.2340    -0.0540 sy         1 UKR       1.065500
     18 O          -18.1330    43.1270    -0.9220 o          1 UKR      -0.528000
     19 C25        -15.8600    44.4250    -0.7560 ca         1 UKR      -0.292500
     20 C30        -15.0160    45.1460     0.0830 ca         1 UKR       0.011500
     21 C29        -14.1370    46.0710    -0.4620 ca         1 UKR      -0.169500
     22 C27        -14.9580    45.5300    -2.6880 ca         1 UKR      -0.169500
     23 C          -16.0580    41.6980    -0.1140 c3         1 UKR      -0.294400
     24 C1         -16.8720    40.5450     0.4660 c3         1 UKR      -0.045400
     25 C2         -16.1150    39.2130     0.4450 c6         1 UKR      -0.053700
     26 N          -15.1370    36.8610     1.8990 n3         1 UKR      -0.724600
     27 C3         -17.0320    38.0810     0.9160 c6         1 UKR      -0.072900
     28 C18        -12.8730    35.3520     8.1250 c5         1 UKR      -0.178000
     29 C23        -11.6270    36.2440     7.9840 c5         1 UKR      -0.047900
     30 C19        -12.5270    33.8330     8.2490 c          1 UKR       0.715000
     31 O2         -13.4940    33.0620     8.4880 o          1 UKR      -0.734500
     32 O1         -11.3290    33.4740     8.1130 o          1 UKR      -0.734500
     33 C16        -13.2520    34.0330     5.1900 c5         1 UKR       0.166800
     34 C9         -13.0180    34.1450     3.6680 c5         1 UKR      -0.028400
     35 C14         -9.9620    33.0320     1.7390 ca         1 UKR       0.145000
     36 F           -9.6880    32.2770     0.6390 f          1 UKR      -0.204000
     37 C12         -9.2160    34.3780     3.5450 ca         1 UKR      -0.090000
     38 C11        -10.5330    34.5470     3.9520 ca         1 UKR      -0.091000
     39 H2         -16.9590    35.9830     1.4090 h1         1 UKR       0.030950
     40 H3         -15.9840    36.4280     0.0020 h1         1 UKR       0.030950
     41 H4         -14.1190    39.9420     0.9090 hc         1 UKR       0.045700
     42 H5         -15.1110    39.5710     2.3170 hc         1 UKR       0.045700
     43 H6         -13.8230    37.5660     0.3960 h1         1 UKR       0.030950
     44 H7         -13.3380    37.9100     2.0580 h1         1 UKR       0.030950
     45 H8         -15.3140    34.8520     2.3540 h1         1 UKR       0.029200
     46 H9         -13.9900    35.1940     1.2390 h1         1 UKR       0.029200
     47 H10        -12.6910    36.2020     3.0890 hc         1 UKR       0.054700
     48 H11         -7.8930    33.4650     2.0860 ha         1 UKR       0.118000
     49 H12        -12.0670    32.6970     1.5530 ha         1 UKR       0.118000
     50 H13        -14.2130    36.6360     7.0770 h1         1 UKR       0.021200
     51 H14        -14.7750    34.9630     7.1660 h1         1 UKR       0.021200
     52 H15        -13.9310    36.8040     9.3260 hc         1 UKR       0.028200
     53 H16        -14.1890    35.1470     9.8810 hc         1 UKR       0.028200
     54 H17        -11.9480    35.0320    10.8120 hc         1 UKR       0.024950
     55 H18        -12.3870    36.6880    11.1980 hc         1 UKR       0.024950
     56 H19        -10.1710    35.9150     9.5900 hc         1 UKR       0.024950
     57 H20        -10.8580    37.5280     9.5790 hc         1 UKR       0.024950
     58 H21        -14.1390    37.1480     4.7330 h1         1 UKR       0.030700
     59 H22        -15.2310    35.7530     4.6780 h1         1 UKR       0.030700
     60 H24        -15.0510    44.9910     1.1520 ha         1 UKR       0.142000
     61 H25        -13.4710    46.6530     0.1610 ha         1 UKR       0.139000
     62 H26        -14.9160    45.7010    -3.7550 ha         1 UKR       0.139000
     63 H27        -15.8070    41.5360    -1.1630 h1         1 UKR       0.093700
     64 H28        -15.1420    41.8900     0.4450 h1         1 UKR       0.093700
     65 H29        -17.7970    40.4380    -0.1040 hc         1 UKR       0.059700
     66 H30        -17.1500    40.7790     1.4970 hc         1 UKR       0.059700
     67 H31        -15.8190    39.0000    -0.5900 hc         1 UKR       0.040700
     68 H33        -17.4340    38.3340     1.9030 hc         1 UKR       0.045700
     69 H34        -17.8810    37.9780     0.2350 hc         1 UKR       0.045700
     70 H35        -10.8840    35.8010     7.3260 hc         1 UKR       0.028200
     71 H36        -11.9330    37.1960     7.5420 hc         1 UKR       0.028200
     72 H38        -14.1890    33.4820     5.3770 h1         1 UKR       0.070200
     73 H39        -12.4490    33.5080     5.7020 h1         1 UKR       0.070200
     74 H40        -13.6230    33.3970     3.1550 hc         1 UKR       0.042700
     75 H41         -8.4150    34.8440     4.1030 ha         1 UKR       0.115000
     76 H42        -10.7560    35.1470     4.8240 ha         1 UKR       0.159000
     77 F1         -13.2770    47.1420    -2.3680 f          1 UKR      -0.175000
     78 O3         -17.1940    43.5860     1.3390 o          1 UKR      -0.528000
     79 H23        -16.5020    44.0430    -2.7740 ha         1 UKR       0.142000
@<TRIPOS>BOND
     1     1    10 1   
     2     1    14 1   
     3     1    33 1   
     4     2    26 1   
     5     2    27 1   
     6     2    39 1   
     7     2    40 1   
     8     3     4 1   
     9     3    25 1   
    10     3    41 1   
    11     3    42 1   
    12     4    26 1   
    13     4    43 1   
    14     4    44 1   
    15     5     6 1   
    16     5    26 1   
    17     5    45 1   
    18     5    46 1   
    19     6    14 1   
    20     6    34 1   
    21     6    47 1   
    22     7     9 ar  
    23     7    34 1   
    24     7    38 ar  
    25     8    35 ar  
    26     8    37 ar  
    27     8    48 1   
    28     9    35 ar  
    29     9    49 1   
    30    10    28 1   
    31    10    50 1   
    32    10    51 1   
    33    11    12 1   
    34    11    28 1   
    35    11    52 1   
    36    11    53 1   
    37    12    13 1   
    38    12    54 1   
    39    12    55 1   
    40    13    29 1   
    41    13    56 1   
    42    13    57 1   
    43    14    58 1   
    44    14    59 1   
    45    15    19 ar  
    46    15    22 ar  
    47    15    79 1   
    48    16    21 ar  
    49    16    22 ar  
    50    16    77 1   
    51    17    18 2   
    52    17    19 1   
    53    17    23 1   
    54    17    78 2   
    55    19    20 ar  
    56    20    21 ar  
    57    20    60 1   
    58    21    61 1   
    59    22    62 1   
    60    23    24 1   
    61    23    63 1   
    62    23    64 1   
    63    24    25 1   
    64    24    65 1   
    65    24    66 1   
    66    25    27 1   
    67    25    67 1   
    68    27    68 1   
    69    27    69 1   
    70    28    29 1   
    71    28    30 1   
    72    29    70 1   
    73    29    71 1   
    74    30    31 1   
    75    30    32 1   
    76    33    34 1   
    77    33    72 1   
    78    33    73 1   
    79    34    74 1   
    80    35    36 1   
    81    37    38 ar  
    82    37    75 1   
    83    38    76 1   
@<TRIPOS>SUBSTRUCTURE
     1 UKR         1 TEMP              0 ****  ****    0 ROOT
