@<TRIPOS>MOLECULE
UKT
   26    26     1     0     0
SMALL
bcc


@<TRIPOS>ATOM
      1 C4          18.9460     2.4210    18.4850 c6         1 UKT       0.158100
      2 C2          17.7600     3.7580    20.2710 c6         1 UKT      -0.130700
      3 C6          17.0470     1.4060    19.7070 c6         1 UKT      -0.122400
      4 C5          17.7710     1.4660    18.3690 c6         1 UKT       0.151100
      5 O10         19.6770     4.6000    19.0070 oh         1 UKT      -0.609800
      6 C3          18.4990     3.8140    18.9270 c6         1 UKT       0.115100
      7 C1          17.3000     5.1580    20.6610 c3         1 UKT       0.137400
      8 O8          16.7180     5.1270    21.9560 oh         1 UKT      -0.611800
      9 O11         19.6310     2.4660    17.2590 oh         1 UKT      -0.579800
     10 O12         16.9330     1.9150    17.3240 oh         1 UKT      -0.588800
     11 C7          16.5830     2.7740    20.1850 c6         1 UKT       0.167100
     12 O13         15.9340     2.5880    21.4230 oh         1 UKT      -0.609800
     13 H1          19.5950     2.0180    19.2800 h1         1 UKT       0.043700
     14 H2          18.4650     3.3880    21.0280 hc         1 UKT       0.084700
     15 H3          16.1910     0.7280    19.6360 hc         1 UKT       0.062200
     16 H4          17.7210     0.9750    20.4550 hc         1 UKT       0.062200
     17 H5          18.1650     0.4650    18.1410 h1         1 UKT       0.051700
     18 H6          19.4830     5.4930    18.7100 ho         1 UKT       0.409000
     19 H7          17.8240     4.2260    18.1650 h1         1 UKT       0.059700
     20 H8          18.1490     5.8500    20.6480 h1         1 UKT       0.026200
     21 H9          16.5770     5.5130    19.9150 h1         1 UKT       0.026200
     22 H10         16.2550     5.9570    22.1060 ho         1 UKT       0.414000
     23 H11         20.3050     3.1490    17.3400 ho         1 UKT       0.416000
     24 H12         16.1610     1.3410    17.2930 ho         1 UKT       0.403000
     25 H13         15.8740     3.1820    19.4460 h1         1 UKT       0.032700
     26 H14         15.8880     3.4550    21.8540 ho         1 UKT       0.433000
@<TRIPOS>BOND
     1     1     4 1   
     2     1     6 1   
     3     1     9 1   
     4     1    13 1   
     5     2     6 1   
     6     2     7 1   
     7     2    11 1   
     8     2    14 1   
     9     3     4 1   
    10     3    11 1   
    11     3    15 1   
    12     3    16 1   
    13     4    10 1   
    14     4    17 1   
    15     5     6 1   
    16     5    18 1   
    17     6    19 1   
    18     7     8 1   
    19     7    20 1   
    20     7    21 1   
    21     8    22 1   
    22     9    23 1   
    23    10    24 1   
    24    11    12 1   
    25    11    25 1   
    26    12    26 1   
@<TRIPOS>SUBSTRUCTURE
     1 UKT         1 TEMP              0 ****  ****    0 ROOT
