@<TRIPOS>MOLECULE
UKT
   26    26     1     0     0
SMALL
No Charge or Current Charge


@<TRIPOS>ATOM
      1 C4          18.9690     2.3770    18.4730 c6         1 UKT       0.181300
      2 C2          17.7420     3.7710    20.2520 c6         1 UKT      -0.130700
      3 C6          16.9910     1.3590    19.6960 c6         1 UKT      -0.122400
      4 C5          17.7480     1.4050    18.3470 c6         1 UKT       0.174300
      5 O10         19.6740     4.6630    18.9830 oh         1 UKT      -0.732000
      6 C3          18.5130     3.8110    18.8940 c6         1 UKT       0.138300
      7 C1          17.2730     5.1950    20.6930 c3         1 UKT       0.160600
      8 O8          16.6450     5.1840    21.9830 oh         1 UKT      -0.674000
      9 O11         19.7390     2.4480    17.2590 oh         1 UKT      -0.642000
     10 O12         16.8410     1.7960    17.2950 oh         1 UKT      -0.711000
     11 C7          16.5460     2.7700    20.1600 c6         1 UKT       0.190300
     12 O13         15.9220     2.6630    21.4350 oh         1 UKT      -0.672000
     13 H1          19.6130     1.9890    19.2760 h1         1 UKT       0.043700
     14 H2          18.4360     3.4200    21.0290 hc         1 UKT       0.084700
     15 H3          16.1170     0.7000    19.6130 hc         1 UKT       0.062200
     16 H4          17.6420     0.9100    20.4590 hc         1 UKT       0.062200
     17 H5          18.1420     0.3980    18.1410 h1         1 UKT       0.051700
     18 H6          19.3610     5.5960    18.9260 ho         1 UKT       0.508000
     19 H7          17.8290     4.1920    18.1190 h1         1 UKT       0.059700
     20 H8          18.1420     5.8650    20.7220 h1         1 UKT       0.026200
     21 H9          16.5780     5.5880    19.9380 h1         1 UKT       0.026200
     22 H10         16.5170     6.1250    22.2480 ho         1 UKT       0.453000
     23 H11         20.2320     3.2950    17.3460 ho         1 UKT       0.455000
     24 H12         16.3440     0.9870    17.0330 ho         1 UKT       0.502000
     25 H13         15.8220     3.1660    19.4320 h1         1 UKT       0.032700
     26 H14         16.0730     3.5610    21.8390 ho         1 UKT       0.472000
@<TRIPOS>BOND
     1     1     4 1   
     2     1     6 1   
     3     1     9 1   
     4     1    13 1   
     5     2     6 1   
     6     2     7 1   
     7     2    11 1   
     8     2    14 1   
     9     3     4 1   
    10     3    11 1   
    11     3    15 1   
    12     3    16 1   
    13     4    10 1   
    14     4    17 1   
    15     5     6 1   
    16     5    18 1   
    17     6    19 1   
    18     7     8 1   
    19     7    20 1   
    20     7    21 1   
    21     8    22 1   
    22     9    23 1   
    23    10    24 1   
    24    11    12 1   
    25    11    25 1   
    26    12    26 1   
@<TRIPOS>SUBSTRUCTURE
     1 UKT         1 TEMP              0 ****  ****    0 ROOT
