@<TRIPOS>MOLECULE
UKV
   25    26     1     0     0
SMALL
No Charge or Current Charge


@<TRIPOS>ATOM
      1 CAA        -30.6440   459.3760  -100.1930 c3         1 UKV       0.144900
      2 CAE        -30.7220   454.4920  -100.5940 ca         1 UKV      -0.082000
      3 CAF        -29.8690   454.5310  -101.7090 ca         1 UKV      -0.113000
      4 CAG        -31.1080   455.6840   -99.9650 ca         1 UKV      -0.119000
      5 CAH        -29.7860   456.9530  -101.5690 ca         1 UKV      -0.168000
      6 CAL        -29.3890   455.7590  -102.2140 ca         1 UKV      -0.056800
      7 CAM        -30.6440   456.9170  -100.4460 ca         1 UKV       0.141100
      8 CAN        -26.9860   456.2880  -105.3120 c          1 UKV       0.571200
      9 CAO        -26.7730   458.6610  -105.3480 cs         1 UKV       0.327000
     10 CAP        -27.8310   456.6620  -104.1650 cc         1 UKV      -0.161600
     11 NAI        -26.4870   457.4310  -105.8490 ns         1 UKV      -0.398500
     12 OAJ        -31.0570   458.0580   -99.7870 os         1 UKV      -0.339100
     13 SAC        -26.2140   460.1220  -105.9310 s          1 UKV      -0.403400
     14 SAK        -27.8530   458.4140  -103.9560 ss         1 UKV      -0.054200
     15 H1         -31.0870   460.1330   -99.5340 h1         1 UKV       0.045700
     16 H2         -29.5520   459.4770  -100.1400 h1         1 UKV       0.045700
     17 H3         -30.9690   459.5880  -101.2200 h1         1 UKV       0.045700
     18 H4         -28.3050   454.7110  -103.7440 ha         1 UKV       0.202000
     19 H6         -31.0830   453.5370  -100.2190 ha         1 UKV       0.122000
     20 H7         -29.5830   453.5940  -102.1820 ha         1 UKV       0.121000
     21 H8         -31.7680   455.6550   -99.1020 ha         1 UKV       0.133000
     22 H9         -29.4330   457.9050  -101.9340 ha         1 UKV       0.125000
     23 H10        -25.8810   457.3510  -106.6530 hn         1 UKV       0.361500
     24 CAD        -28.4900   455.7300  -103.3970 cf         1 UKV      -0.011200
     25 OAB        -26.7510   455.1680  -105.7350 o          1 UKV      -0.480000
@<TRIPOS>BOND
     1     1    12 1   
     2     1    15 1   
     3     1    16 1   
     4     1    17 1   
     5     2     3 ar  
     6     2     4 ar  
     7     2    19 1   
     8     3     6 ar  
     9     3    20 1   
    10     4     7 ar  
    11     4    21 1   
    12     5     6 ar  
    13     5     7 ar  
    14     5    22 1   
    15     6    24 1   
    16     7    12 1   
    17     8    10 1   
    18     8    11 1   
    19     8    25 2   
    20     9    11 1   
    21     9    13 2   
    22     9    14 1   
    23    10    14 1   
    24    10    24 2   
    25    11    23 1   
    26    18    24 1   
@<TRIPOS>SUBSTRUCTURE
     1 UKV         1 TEMP              0 ****  ****    0 ROOT
