@<TRIPOS>MOLECULE
UKV
   25    26     1     0     0
SMALL
abcg2


@<TRIPOS>ATOM
      1 CAA        -30.6790   459.3190  -100.3960 c3         1 UKV       0.144900
      2 CAE        -30.5280   454.5410  -100.4970 ca         1 UKV      -0.082000
      3 CAF        -29.8020   454.5480  -101.6800 ca         1 UKV      -0.113000
      4 CAG        -30.9160   455.7270   -99.9040 ca         1 UKV      -0.119000
      5 CAH        -29.8510   456.9630  -101.6790 ca         1 UKV      -0.168000
      6 CAL        -29.4450   455.7590  -102.2720 ca         1 UKV      -0.056800
      7 CAM        -30.5840   456.9480  -100.4990 ca         1 UKV       0.141100
      8 CAN        -27.1920   456.3320  -105.3540 c          1 UKV       0.571200
      9 CAO        -26.6240   458.5930  -105.0290 cs         1 UKV       0.327000
     10 CAP        -27.9420   456.6400  -104.1160 cc         1 UKV      -0.161600
     11 NAI        -26.5130   457.4640  -105.7630 ns         1 UKV      -0.398500
     12 OAJ        -31.0170   458.0510   -99.8670 os         1 UKV      -0.339100
     13 SAC        -25.9090   460.0270  -105.3310 s          1 UKV      -0.403400
     14 SAK        -27.6700   458.3120  -103.6620 ss         1 UKV      -0.054200
     15 H1         -31.0910   460.0570   -99.7130 h1         1 UKV       0.045700
     16 H2         -29.5970   459.4610  -100.4540 h1         1 UKV       0.045700
     17 H3         -31.1140   459.4780  -101.3860 h1         1 UKV       0.045700
     18 H4         -28.6140   454.7120  -103.9530 ha         1 UKV       0.202000
     19 H6         -30.7930   453.6010  -100.0340 ha         1 UKV       0.122000
     20 H7         -29.5060   453.6140  -102.1400 ha         1 UKV       0.121000
     21 H8         -31.4870   455.7220   -98.9840 ha         1 UKV       0.133000
     22 H9         -29.6400   457.9060  -102.1610 ha         1 UKV       0.125000
     23 H10        -25.9390   457.4530  -106.5980 hn         1 UKV       0.361500
     24 CAD        -28.6560   455.6930  -103.4880 cf         1 UKV      -0.011200
     25 OAB        -27.1570   455.2760  -105.9360 o          1 UKV      -0.480000
@<TRIPOS>BOND
     1     1    12 1   
     2     1    15 1   
     3     1    16 1   
     4     1    17 1   
     5     2     3 ar  
     6     2     4 ar  
     7     2    19 1   
     8     3     6 ar  
     9     3    20 1   
    10     4     7 ar  
    11     4    21 1   
    12     5     6 ar  
    13     5     7 ar  
    14     5    22 1   
    15     6    24 1   
    16     7    12 1   
    17     8    10 1   
    18     8    11 1   
    19     8    25 2   
    20     9    11 1   
    21     9    13 2   
    22     9    14 1   
    23    10    14 1   
    24    10    24 2   
    25    11    23 1   
    26    18    24 1   
@<TRIPOS>SUBSTRUCTURE
     1 UKV         1 TEMP              0 ****  ****    0 ROOT
