@<TRIPOS>MOLECULE
UKW
   31    31     1     0     0
SMALL
abcg2


@<TRIPOS>ATOM
      1 O01          2.5140    -1.9130     0.6560 o          1 UKW      -0.467100
      2 C02          2.8100    -0.9820    -0.0280 c          1 UKW       0.564500
      3 N03          3.9890    -1.0530    -0.9310 ne         1 UKW      -0.041100
      4 O04          4.0450    -2.0850    -1.5150 o          1 UKW      -0.088300
      5 C05          2.1460     0.3710    -0.0310 c3         1 UKW      -0.012300
      6 N06          0.7290     0.2030     0.1450 ns         1 UKW      -0.515900
      7 C07         -0.1850     0.5640    -0.7840 c          1 UKW       0.618700
      8 O08          0.1030     1.1470    -1.8150 o          1 UKW      -0.578100
      9 C09         -1.5990     0.2090    -0.4610 ca         1 UKW      -0.154600
     10 C10         -2.6120     1.0340    -0.9430 ca         1 UKW      -0.073000
     11 C11         -3.9380     0.7370    -0.6880 ca         1 UKW      -0.098500
     12 C12         -4.2750    -0.4100     0.0360 ca         1 UKW       0.055000
     13 C13         -3.2600    -1.2480     0.5010 ca         1 UKW      -0.098500
     14 C14         -1.9340    -0.9360     0.2570 ca         1 UKW      -0.073000
     15 C15         -5.6420    -0.7260     0.2900 cg         1 UKW      -0.141000
     16 C16         -6.7960    -0.9960     0.4960 c1         1 UKW      -0.205000
     17 C25          2.7290     1.2850     1.0820 c3         1 UKW       0.179300
     18 C26          4.2270     1.4720     0.9580 c3         1 UKW      -0.093100
     19 O27          2.1200     2.5450     1.0010 oh         1 UKW      -0.642000
     20 H05          2.3250     0.8550    -0.9940 h1         1 UKW       0.123700
     21 HN06         0.4150    -0.2100     1.0100 hn         1 UKW       0.326500
     22 H10         -2.3640     1.9190    -1.5120 ha         1 UKW       0.128500
     23 H11         -4.7180     1.3920    -1.0520 ha         1 UKW       0.126500
     24 H13         -3.5110    -2.1470     1.0480 ha         1 UKW       0.126500
     25 H14         -1.1690    -1.6180     0.6080 ha         1 UKW       0.128500
     26 H16         -7.8190    -1.2360     0.6810 ha         1 UKW       0.260000
     27 H25          2.5080     0.8040     2.0450 h1         1 UKW       0.031700
     28 H26          4.5090     1.8360    -0.0310 hc         1 UKW       0.053367
     29 H26A         4.5680     2.1930     1.7000 hc         1 UKW       0.053367
     30 H26B         4.7640     0.5420     1.1450 hc         1 UKW       0.053367
     31 HO27         1.2020     2.4670     1.2780 ho         1 UKW       0.450000
@<TRIPOS>BOND
     1     1     2 2   
     2     2     3 1   
     3     2     5 1   
     4     3     4 2   
     5     5     6 1   
     6     5    17 1   
     7     5    20 1   
     8     6     7 1   
     9     6    21 1   
    10     7     8 2   
    11     7     9 1   
    12     9    10 ar  
    13     9    14 ar  
    14    10    11 ar  
    15    10    22 1   
    16    11    12 ar  
    17    11    23 1   
    18    12    13 ar  
    19    12    15 1   
    20    13    14 ar  
    21    13    24 1   
    22    14    25 1   
    23    15    16 3   
    24    16    26 1   
    25    17    18 1   
    26    17    19 1   
    27    17    27 1   
    28    18    28 1   
    29    18    29 1   
    30    18    30 1   
    31    19    31 1   
@<TRIPOS>SUBSTRUCTURE
     1 UKW         1 TEMP              0 ****  ****    0 ROOT
