@<TRIPOS>MOLECULE
UKW
   31    31     1     0     0
SMALL
No Charge or Current Charge


@<TRIPOS>ATOM
      1 O01          2.5940    -1.9780     0.8420 o          1 UKW      -0.467100
      2 C02          2.9590    -1.1240     0.0390 c          1 UKW       0.564500
      3 N03          4.0330    -1.2560    -0.8450 ne         1 UKW      -0.041100
      4 O04          4.9130    -2.1290    -0.9060 o          1 UKW      -0.088300
      5 C05          2.2100     0.2270    -0.1230 c3         1 UKW      -0.012300
      6 N06          0.7400    -0.0100    -0.0010 ns         1 UKW      -0.515900
      7 C07         -0.2530     0.8350    -0.4470 c          1 UKW       0.618700
      8 O08          0.0320     1.9050    -0.9660 o          1 UKW      -0.578100
      9 C09         -1.6850     0.3830    -0.2510 ca         1 UKW      -0.154600
     10 C10         -2.7400     1.2170    -0.6890 ca         1 UKW      -0.073000
     11 C11         -4.0810     0.8300    -0.5230 ca         1 UKW      -0.098500
     12 C12         -4.3920    -0.3980     0.0820 ca         1 UKW       0.055000
     13 C13         -3.3550    -1.2370     0.5210 ca         1 UKW      -0.098500
     14 C14         -2.0120    -0.8540     0.3580 ca         1 UKW      -0.073000
     15 C15         -5.7610    -0.7930     0.2510 cg         1 UKW      -0.141000
     16 C16         -6.9210    -1.1320     0.3860 c1         1 UKW      -0.205000
     17 C25          2.7330     1.3110     0.8710 c3         1 UKW       0.179300
     18 C26          4.2690     1.4670     0.9130 c3         1 UKW      -0.093100
     19 O27          2.1790     2.5840     0.5250 oh         1 UKW      -0.642000
     20 H05          2.4170     0.5730    -1.1460 h1         1 UKW       0.123700
     21 HN06         0.4330    -0.8720     0.4360 hn         1 UKW       0.326500
     22 H10         -2.5240     2.1740    -1.1610 ha         1 UKW       0.128500
     23 H11         -4.8770     1.4870    -0.8660 ha         1 UKW       0.126500
     24 H13         -3.5890    -2.1910     0.9910 ha         1 UKW       0.126500
     25 H14         -1.2400    -1.5340     0.7120 ha         1 UKW       0.128500
     26 H16         -7.9450    -1.4290     0.4990 ha         1 UKW       0.260000
     27 H25          2.4000     1.0310     1.8800 h1         1 UKW       0.031700
     28 H26          4.6720     1.6740    -0.0860 hc         1 UKW       0.053367
     29 H26A         4.5510     2.2970     1.5730 hc         1 UKW       0.053367
     30 H26B         4.7500     0.5620     1.3040 hc         1 UKW       0.053367
     31 HO27         1.3720     2.3980    -0.0210 ho         1 UKW       0.450000
@<TRIPOS>BOND
     1     1     2 2   
     2     2     3 1   
     3     2     5 1   
     4     3     4 2   
     5     5     6 1   
     6     5    17 1   
     7     5    20 1   
     8     6     7 1   
     9     6    21 1   
    10     7     8 2   
    11     7     9 1   
    12     9    10 ar  
    13     9    14 ar  
    14    10    11 ar  
    15    10    22 1   
    16    11    12 ar  
    17    11    23 1   
    18    12    13 ar  
    19    12    15 1   
    20    13    14 ar  
    21    13    24 1   
    22    14    25 1   
    23    15    16 3   
    24    16    26 1   
    25    17    18 1   
    26    17    19 1   
    27    17    27 1   
    28    18    28 1   
    29    18    29 1   
    30    18    30 1   
    31    19    31 1   
@<TRIPOS>SUBSTRUCTURE
     1 UKW         1 TEMP              0 ****  ****    0 ROOT
