@<TRIPOS>MOLECULE
UKX
   26    26     1     0     0
SMALL
abcg2


@<TRIPOS>ATOM
      1 O1         127.4900   122.0610   140.6110 o          1 UKX      -0.566000
      2 O2         127.4580   122.3580   145.2300 o          1 UKX      -0.608100
      3 N1         126.1420   121.9310   142.4550 n          1 UKX      -0.413800
      4 C1         126.6540   121.4820   141.2860 c          1 UKX       0.561000
      5 C2         126.0280   120.1380   140.9880 c5         1 UKX      -0.165400
      6 C3         124.8570   120.0500   141.9600 c5         1 UKX      -0.093400
      7 C4         125.2750   120.9650   143.1120 c5         1 UKX       0.096000
      8 C5         127.7260   122.7180   144.0950 c          1 UKX       0.583100
      9 C6         126.6330   123.1320   143.1020 c3         1 UKX       0.038700
     10 C7         125.5230   123.9340   143.7680 c3         1 UKX      -0.075400
     11 C8         126.0100   125.2950   144.2460 c3         1 UKX      -0.091100
     12 H1         125.7460   120.0580   139.9390 hc         1 UKX       0.077700
     13 H2         126.7790   119.3670   141.1830 hc         1 UKX       0.077700
     14 H3         123.9510   120.4360   141.4910 hc         1 UKX       0.057700
     15 H4         125.8160   120.4160   143.8890 h1         1 UKX       0.057700
     16 H5         127.0720   123.7480   142.3140 h1         1 UKX       0.083700
     17 H6         124.7210   124.0660   143.0380 hc         1 UKX       0.055200
     18 H7         125.1020   123.3780   144.6060 hc         1 UKX       0.055200
     19 H8         125.1910   125.8630   144.6860 hc         1 UKX       0.038700
     20 H9         126.7870   125.2050   145.0060 hc         1 UKX       0.038700
     21 H10        126.4160   125.8850   143.4230 hc         1 UKX       0.038700
     22 H11        129.7440   122.3930   144.1420 hn         1 UKX       0.319500
     23 H12        129.1500   122.9880   142.6400 hn         1 UKX       0.319500
     24 H13        124.4240   121.4560   143.5800 h1         1 UKX       0.057700
     25 H14        124.6510   119.0370   142.2990 hc         1 UKX       0.057700
     26 N2         128.9700   122.7430   143.5990 nt         1 UKX      -0.600000
@<TRIPOS>BOND
     1     1     4 2   
     2     2     8 2   
     3     3     4 1   
     4     3     7 1   
     5     3     9 1   
     6     4     5 1   
     7     5     6 1   
     8     5    12 1   
     9     5    13 1   
    10     6     7 1   
    11     6    14 1   
    12     6    25 1   
    13     7    15 1   
    14     7    24 1   
    15     8     9 1   
    16     8    26 1   
    17     9    10 1   
    18     9    16 1   
    19    10    11 1   
    20    10    17 1   
    21    10    18 1   
    22    11    19 1   
    23    11    20 1   
    24    11    21 1   
    25    22    26 1   
    26    23    26 1   
@<TRIPOS>SUBSTRUCTURE
     1 UKX         1 TEMP              0 ****  ****    0 ROOT
