@<TRIPOS>MOLECULE
UKX
   26    26     1     0     0
SMALL
No Charge or Current Charge


@<TRIPOS>ATOM
      1 O1         127.6790   121.9820   140.7450 o          1 UKX      -0.566000
      2 O2         128.1180   123.1790   145.1950 o          1 UKX      -0.608100
      3 N1         126.2130   121.8600   142.5480 n          1 UKX      -0.413800
      4 C1         126.8850   121.3530   141.4300 c          1 UKX       0.561000
      5 C2         126.2230   120.0090   141.1490 c5         1 UKX      -0.165400
      6 C3         124.7760   120.2170   141.6630 c5         1 UKX      -0.093400
      7 C4         125.0410   121.0450   142.9580 c5         1 UKX       0.096000
      8 C5         127.9930   122.9710   143.9980 c          1 UKX       0.583100
      9 C6         126.6570   123.1390   143.1990 c3         1 UKX       0.038700
     10 C7         125.5340   123.8250   144.0340 c3         1 UKX      -0.075400
     11 C8         125.8200   125.2980   144.4030 c3         1 UKX      -0.091100
     12 H1         126.3200   119.7190   140.0980 hc         1 UKX       0.077700
     13 H2         126.7080   119.2580   141.7830 hc         1 UKX       0.077700
     14 H3         124.1810   120.7940   140.9440 hc         1 UKX       0.057700
     15 H4         125.3020   120.3970   143.8060 h1         1 UKX       0.057700
     16 H5         126.9000   123.8330   142.3840 h1         1 UKX       0.083700
     17 H6         124.6070   123.8200   143.4480 hc         1 UKX       0.055200
     18 H7         125.3380   123.2470   144.9460 hc         1 UKX       0.055200
     19 H8         124.9620   125.7300   144.9310 hc         1 UKX       0.038700
     20 H9         126.6950   125.3890   145.0560 hc         1 UKX       0.038700
     21 H10        125.9990   125.8960   143.5010 hc         1 UKX       0.038700
     22 H11        129.9380   122.3740   143.7700 hn         1 UKX       0.319500
     23 H12        128.9610   122.3320   142.3090 hn         1 UKX       0.319500
     24 H13        124.1640   121.6440   143.2340 h1         1 UKX       0.057700
     25 H14        124.2450   119.2790   141.8590 hc         1 UKX       0.057700
     26 N2         129.0570   122.5150   143.2990 nt         1 UKX      -0.600000
@<TRIPOS>BOND
     1     1     4 2   
     2     2     8 2   
     3     3     4 1   
     4     3     7 1   
     5     3     9 1   
     6     4     5 1   
     7     5     6 1   
     8     5    12 1   
     9     5    13 1   
    10     6     7 1   
    11     6    14 1   
    12     6    25 1   
    13     7    15 1   
    14     7    24 1   
    15     8     9 1   
    16     8    26 1   
    17     9    10 1   
    18     9    16 1   
    19    10    11 1   
    20    10    17 1   
    21    10    18 1   
    22    11    19 1   
    23    11    20 1   
    24    11    21 1   
    25    22    26 1   
    26    23    26 1   
@<TRIPOS>SUBSTRUCTURE
     1 UKX         1 TEMP              0 ****  ****    0 ROOT
