@<TRIPOS>MOLECULE
UKY
   21    21     1     0     0
SMALL
bcc


@<TRIPOS>ATOM
      1 C           63.8550    12.0780   203.2620 c          1 UKY       0.902600
      2 O2          59.1020    12.3550   203.1100 o          1 UKY      -0.926167
      3 O3          57.8730    14.5730   203.5630 o          1 UKY      -0.926167
      4 O4          60.0850    14.0600   204.7690 o          1 UKY      -0.926167
      5 N           63.8590    14.5650   202.6900 n8         1 UKY      -0.853800
      6 CA          63.0640    13.3860   202.9810 c3         1 UKY      -0.016500
      7 O           63.1620    11.0820   203.5610 o          1 UKY      -0.865800
      8 CB          62.0800    13.1150   201.8400 c3         1 UKY       0.072300
      9 NG          61.2390    14.2490   201.5230 na         1 UKY       0.157400
     10 CD1         60.1000    14.6430   202.1330 cc         1 UKY      -0.156100
     11 ND2         61.5830    15.0600   200.5300 nc         1 UKY      -0.331800
     12 CE1         59.7730    15.7780   201.4210 cd         1 UKY       0.179200
     13 NE2         60.6960    15.9930   200.4590 nd         1 UKY      -0.484000
     14 P           59.1980    13.8160   203.5480 p5         1 UKY       1.182000
     15 H5          64.4310    14.7730   203.5000 hn         1 UKY       0.297300
     16 H6          64.5280    14.3340   201.9640 hn         1 UKY       0.297300
     17 H7          62.4550    13.6050   203.8640 h1         1 UKY       0.125700
     18 H8          61.4260    12.2900   202.1050 h1         1 UKY       0.065700
     19 H9          62.6170    12.8520   200.9260 h1         1 UKY       0.065700
     20 H10         58.9240    16.4290   201.5490 h4         1 UKY       0.007100
     21 OXT         65.0960    12.1240   203.1660 o          1 UKY      -0.865800
@<TRIPOS>BOND
     1     1     6 1   
     2     1     7 1   
     3     1    21 1   
     4     2    14 1   
     5     3    14 1   
     6     4    14 1   
     7     5     6 1   
     8     5    15 1   
     9     5    16 1   
    10     6     8 1   
    11     6    17 1   
    12     8     9 1   
    13     8    18 1   
    14     8    19 1   
    15     9    10 1   
    16     9    11 1   
    17    10    12 2   
    18    10    14 1   
    19    11    13 2   
    20    12    13 1   
    21    12    20 1   
@<TRIPOS>SUBSTRUCTURE
     1 UKY         1 TEMP              0 ****  ****    0 ROOT
