@<TRIPOS>MOLECULE
UKY
   21    21     1     0     0
SMALL
No Charge or Current Charge


@<TRIPOS>ATOM
      1 C           63.7450    12.0690   203.4680 c          1 UKY       0.692000
      2 O2          58.8840    12.3230   202.5130 o          1 UKY      -0.926167
      3 O3          57.7550    14.3580   203.5200 o          1 UKY      -0.926167
      4 O4          59.9560    13.4140   204.4090 o          1 UKY      -0.926167
      5 N           64.1870    14.5440   202.7670 n8         1 UKY      -0.964200
      6 CA          63.1520    13.4620   203.0350 c3         1 UKY      -0.016500
      7 O           63.9710    11.8830   204.6550 o          1 UKY      -0.760500
      8 CB          62.1630    13.2720   201.8460 c3         1 UKY       0.101600
      9 NG          61.2740    14.4230   201.5710 na         1 UKY       0.178800
     10 CD1         60.0170    14.6670   202.0570 cc         1 UKY      -0.141500
     11 ND2         61.6280    15.3910   200.6630 nc         1 UKY      -0.331800
     12 CE1         59.6250    15.8190   201.4450 cd         1 UKY       0.113900
     13 NE2         60.6350    16.2390   200.5990 nd         1 UKY      -0.484000
     14 P           59.0160    13.6020   203.2680 p5         1 UKY       1.182000
     15 H5          64.7970    14.6360   203.5890 hn         1 UKY       0.352500
     16 H6          64.8230    14.2260   202.0270 hn         1 UKY       0.352500
     17 H7          62.5460    13.7790   203.8960 h1         1 UKY       0.125700
     18 H8          61.5300    12.4020   202.0510 h1         1 UKY       0.065700
     19 H9          62.7300    13.0450   200.9350 h1         1 UKY       0.065700
     20 H10         58.6910    16.3600   201.5440 h4         1 UKY       0.007100
     21 OXT         64.0210    11.2470   202.6040 o          1 UKY      -0.760500
@<TRIPOS>BOND
     1     1     6 1   
     2     1     7 1   
     3     1    21 1   
     4     2    14 1   
     5     3    14 1   
     6     4    14 1   
     7     5     6 1   
     8     5    15 1   
     9     5    16 1   
    10     6     8 1   
    11     6    17 1   
    12     8     9 1   
    13     8    18 1   
    14     8    19 1   
    15     9    10 1   
    16     9    11 1   
    17    10    12 2   
    18    10    14 1   
    19    11    13 2   
    20    12    13 1   
    21    12    20 1   
@<TRIPOS>SUBSTRUCTURE
     1 UKY         1 TEMP              0 ****  ****    0 ROOT
