@<TRIPOS>MOLECULE
UKZ
   50    52     1     0     0
SMALL
abcg2


@<TRIPOS>ATOM
      1 C10        -18.5750     4.1670     3.9200 ca         1 UKZ      -0.037000
      2 C13        -18.7770     3.8640     5.2680 ca         1 UKZ      -0.086300
      3 C15        -19.7210    -0.1360    10.7480 ca         1 UKZ      -0.121300
      4 C17        -19.7830    -1.8100    12.4950 ca         1 UKZ      -0.111000
      5 C20        -20.0150     0.8710    11.6810 ca         1 UKZ      -0.045300
      6 C21        -20.1480     2.3220    11.3150 c3         1 UKZ      -0.062800
      7 C01        -14.4780    -0.5500     9.5580 c3         1 UKZ      -0.090100
      8 C03        -16.9700    -0.2130     9.3030 c3         1 UKZ      -0.086400
      9 C04        -18.1040     0.7710     9.0250 c3         1 UKZ       0.122700
     10 N01        -18.0060     1.2600     7.6640 ns         1 UKZ      -0.493900
     11 C05        -18.2650     2.5270     7.3050 c          1 UKZ       0.612700
     12 O01        -18.6560     3.3810     8.0900 o          1 UKZ      -0.613100
     13 C06        -18.0420     2.8510     5.8620 ca         1 UKZ      -0.098600
     14 C07        -17.0790     2.1860     5.0930 ca         1 UKZ      -0.122000
     15 C08        -16.8830     2.5160     3.7610 ca         1 UKZ      -0.083000
     16 C09        -17.6370     3.5110     3.1470 ca         1 UKZ      -0.129000
     17 N02        -19.4440     5.1790     3.5410 ns         1 UKZ      -0.152000
     18 C11        -20.2420     5.5900     4.5680 c          1 UKZ       0.562000
     19 O02        -21.0920     6.4520     4.5050 o          1 UKZ      -0.522000
     20 C12        -19.8470     4.7710     5.7870 c5         1 UKZ      -0.117100
     21 C14        -19.5090     0.1920     9.2790 c3         1 UKZ       0.200600
     22 O03        -19.6540    -0.9270     8.4440 oh         1 UKZ      -0.662000
     23 C16        -19.6120    -1.4600    11.1660 ca         1 UKZ      -0.097000
     24 C18        -20.0760    -0.8340    13.4320 ca         1 UKZ      -0.095000
     25 C19        -20.1880     0.4790    13.0100 ca         1 UKZ       0.113000
     26 CL         -20.5690     1.6810    14.2090 cl         1 UKZ      -0.208000
     27 H1         -19.6910    -2.8420    12.8030 ha         1 UKZ       0.119000
     28 H2         -21.1140     2.7190    11.6290 hc         1 UKZ       0.057700
     29 H3         -19.3810     2.9200    11.8110 hc         1 UKZ       0.057700
     30 H4         -20.0510     2.5050    10.2490 hc         1 UKZ       0.057700
     31 H5         -13.4960    -0.0880     9.4620 hc         1 UKZ       0.032700
     32 H6         -14.5840    -0.8930    10.5880 hc         1 UKZ       0.032700
     33 H7         -14.4910    -1.4320     8.9140 hc         1 UKZ       0.032700
     34 H8         -15.4270     0.7780     8.1620 hc         1 UKZ       0.040200
     35 H9         -15.5380     1.3040     9.8260 hc         1 UKZ       0.040200
     36 H10        -17.0920    -0.6040    10.3170 hc         1 UKZ       0.055200
     37 H11        -17.0380    -1.0740     8.6320 hc         1 UKZ       0.055200
     38 H12        -17.9800     1.6290     9.6890 h1         1 UKZ       0.086700
     39 H13        -17.8200     0.5780     6.9460 hn         1 UKZ       0.324500
     40 H14        -16.4540     1.4210     5.5350 ha         1 UKZ       0.118000
     41 H15        -16.1270     1.9950     3.1890 ha         1 UKZ       0.119000
     42 H16        -17.4880     3.7620     2.1050 ha         1 UKZ       0.124000
     43 H17        -19.4930     5.5670     2.6100 hn         1 UKZ       0.172000
     44 H18        -19.4940     5.4370     6.5760 hc         1 UKZ       0.105200
     45 H19        -20.7150     4.2440     6.1870 hc         1 UKZ       0.105200
     46 H20        -20.2320     0.9660     8.9910 h1         1 UKZ       0.053700
     47 H21        -20.5820    -1.1800     8.4250 ho         1 UKZ       0.450000
     48 H22        -19.3880    -2.2300    10.4410 ha         1 UKZ       0.126000
     49 H23        -20.2180    -1.0890    14.4740 ha         1 UKZ       0.130000
     50 C02        -15.5880     0.4210     9.1820 c3         1 UKZ      -0.075400
@<TRIPOS>BOND
     1     1     2 ar  
     2     1    16 ar  
     3     1    17 1   
     4     2    13 ar  
     5     2    20 1   
     6     3     5 ar  
     7     3    21 1   
     8     3    23 ar  
     9     4    23 ar  
    10     4    24 ar  
    11     4    27 1   
    12     5     6 1   
    13     5    25 ar  
    14     6    28 1   
    15     6    29 1   
    16     6    30 1   
    17     7    31 1   
    18     7    32 1   
    19     7    33 1   
    20     7    50 1   
    21     8     9 1   
    22     8    36 1   
    23     8    37 1   
    24     8    50 1   
    25     9    10 1   
    26     9    21 1   
    27     9    38 1   
    28    10    11 1   
    29    10    39 1   
    30    11    12 2   
    31    11    13 1   
    32    13    14 ar  
    33    14    15 ar  
    34    14    40 1   
    35    15    16 ar  
    36    15    41 1   
    37    16    42 1   
    38    17    18 1   
    39    17    43 1   
    40    18    19 2   
    41    18    20 1   
    42    20    44 1   
    43    20    45 1   
    44    21    22 1   
    45    21    46 1   
    46    22    47 1   
    47    23    48 1   
    48    24    25 ar  
    49    24    49 1   
    50    25    26 1   
    51    34    50 1   
    52    35    50 1   
@<TRIPOS>SUBSTRUCTURE
     1 UKZ         1 TEMP              0 ****  ****    0 ROOT
