@<TRIPOS>MOLECULE
UKZ
   50    52     1     0     0
SMALL
No Charge or Current Charge


@<TRIPOS>ATOM
      1 C10        -18.5870     4.2130     3.8170 ca         1 UKZ      -0.037000
      2 C13        -18.7390     3.9680     5.1680 ca         1 UKZ      -0.086300
      3 C15        -19.6610    -0.1910    10.8330 ca         1 UKZ      -0.121300
      4 C17        -19.4930    -1.8460    12.6350 ca         1 UKZ      -0.111000
      5 C20        -20.2240     0.7440    11.7500 ca         1 UKZ      -0.045300
      6 C21        -20.6210     2.1530    11.2880 c3         1 UKZ      -0.062800
      7 C01        -14.2840    -0.4420     9.5650 c3         1 UKZ      -0.090100
      8 C03        -16.8370    -0.1530     9.3920 c3         1 UKZ      -0.086400
      9 C04        -18.0310     0.7850     9.0660 c3         1 UKZ       0.122700
     10 N01        -17.9420     1.2710     7.6810 ns         1 UKZ      -0.493900
     11 C05        -18.4130     2.4870     7.2380 c          1 UKZ       0.612700
     12 O01        -18.9230     3.2790     8.0190 o          1 UKZ      -0.613100
     13 C06        -18.2520     2.7730     5.7510 ca         1 UKZ      -0.098600
     14 C07        -17.6040     1.8540     4.8750 ca         1 UKZ      -0.122000
     15 C08        -17.4590     2.1270     3.4940 ca         1 UKZ      -0.083000
     16 C09        -17.9550     3.3230     2.9470 ca         1 UKZ      -0.129000
     17 N02        -19.1600     5.4480     3.5410 ns         1 UKZ      -0.152000
     18 C11        -19.7230     6.1210     4.6030 c          1 UKZ       0.562000
     19 O02        -20.2760     7.2130     4.5680 o          1 UKZ      -0.522000
     20 C12        -19.4740     5.1550     5.7990 c5         1 UKZ      -0.117100
     21 C14        -19.4400     0.1650     9.3490 c3         1 UKZ       0.200600
     22 O03        -19.6680    -0.9820     8.5110 oh         1 UKZ      -0.662000
     23 C16        -19.2970    -1.4770    11.2970 ca         1 UKZ      -0.097000
     24 C18        -20.0630    -0.9360    13.5320 ca         1 UKZ      -0.095000
     25 C19        -20.4300     0.3480    13.0990 ca         1 UKZ       0.113000
     26 Cl         -21.1620     1.4240    14.2940 cl         1 UKZ      -0.208000
     27 H1         -19.2060    -2.8390    12.9740 ha         1 UKZ       0.119000
     28 H2         -21.5820     2.1340    10.7610 hc         1 UKZ       0.057700
     29 H3         -20.7130     2.8680    12.1120 hc         1 UKZ       0.057700
     30 H4         -19.8760     2.5850    10.6120 hc         1 UKZ       0.057700
     31 H5         -13.3210     0.0520     9.3870 hc         1 UKZ       0.032700
     32 H6         -14.3440    -0.7030    10.6290 hc         1 UKZ       0.032700
     33 H7         -14.3080    -1.3680     8.9790 hc         1 UKZ       0.032700
     34 H8         -15.3270     0.7600     8.1090 hc         1 UKZ       0.040200
     35 H9         -15.3750     1.4170     9.7440 hc         1 UKZ       0.040200
     36 H10        -16.9010    -0.4600    10.4420 hc         1 UKZ       0.055200
     37 H11        -16.9140    -1.0670     8.7890 hc         1 UKZ       0.055200
     38 H12        -17.9290     1.6560     9.7270 h1         1 UKZ       0.086700
     39 H13        -17.5680     0.6440     6.9830 hn         1 UKZ       0.324500
     40 H14        -17.1990     0.9170     5.2460 ha         1 UKZ       0.118000
     41 H15        -16.9590     1.4060     2.8510 ha         1 UKZ       0.119000
     42 H16        -17.8510     3.5450     1.8880 ha         1 UKZ       0.124000
     43 H17        -19.1660     5.8340     2.6050 hn         1 UKZ       0.172000
     44 H18        -18.8960     5.6850     6.5620 hc         1 UKZ       0.105200
     45 H19        -20.4380     4.8990     6.2490 hc         1 UKZ       0.105200
     46 H20        -20.1810     0.9250     9.0710 h1         1 UKZ       0.053700
     47 H21        -20.5610    -1.3200     8.7380 ho         1 UKZ       0.450000
     48 H22        -18.8520    -2.2020    10.6190 ha         1 UKZ       0.126000
     49 H23        -20.2240    -1.2240    14.5680 ha         1 UKZ       0.130000
     50 C02        -15.4460     0.4880     9.1640 c3         1 UKZ      -0.075400
@<TRIPOS>BOND
     1     1     2 ar  
     2     1    16 ar  
     3     1    17 1   
     4     2    13 ar  
     5     2    20 1   
     6     3     5 ar  
     7     3    21 1   
     8     3    23 ar  
     9     4    23 ar  
    10     4    24 ar  
    11     4    27 1   
    12     5     6 1   
    13     5    25 ar  
    14     6    28 1   
    15     6    29 1   
    16     6    30 1   
    17     7    31 1   
    18     7    32 1   
    19     7    33 1   
    20     7    50 1   
    21     8     9 1   
    22     8    36 1   
    23     8    37 1   
    24     8    50 1   
    25     9    10 1   
    26     9    21 1   
    27     9    38 1   
    28    10    11 1   
    29    10    39 1   
    30    11    12 2   
    31    11    13 1   
    32    13    14 ar  
    33    14    15 ar  
    34    14    40 1   
    35    15    16 ar  
    36    15    41 1   
    37    16    42 1   
    38    17    18 1   
    39    17    43 1   
    40    18    19 2   
    41    18    20 1   
    42    20    44 1   
    43    20    45 1   
    44    21    22 1   
    45    21    46 1   
    46    22    47 1   
    47    23    48 1   
    48    24    25 ar  
    49    24    49 1   
    50    25    26 1   
    51    34    50 1   
    52    35    50 1   
@<TRIPOS>SUBSTRUCTURE
     1 UKZ         1 TEMP              0 ****  ****    0 ROOT
