@<TRIPOS>MOLECULE
UL0
   85    89     1     0     0
SMALL
No Charge or Current Charge


@<TRIPOS>ATOM
      1 N1           8.3010    -0.3660    32.7370 nc         1 UL0      -0.536800
      2 N3          12.6430     6.2830    25.5870 n3         1 UL0      -0.784600
      3 C4          14.6250     7.6040    28.4120 ca         1 UL0      -0.026300
      4 C5          13.4260     7.2670    27.5120 c5         1 UL0      -0.041400
      5 C6          13.9110     6.8520    26.1020 c5         1 UL0       0.200800
      6 C7          12.7700     5.9340    27.9810 c5         1 UL0      -0.064700
      7 C10         11.0820     2.4250    30.2320 c6         1 UL0      -0.068400
      8 C13          8.2230     0.8060    30.7740 cd         1 UL0      -0.187300
      9 C17          6.7300    -1.3300    31.1340 c3         1 UL0      -0.099700
     10 C21          9.1360     3.9310    30.8840 c6         1 UL0      -0.068400
     11 C22         10.0480     5.1520    30.6170 c6         1 UL0       0.168300
     12 C24         12.5750     5.7910    24.1840 c3         1 UL0       0.223800
     13 C26         15.0210     5.5110    23.4600 c          1 UL0       0.713000
     14 C28         12.2080     3.0340    22.7170 c5         1 UL0      -0.082400
     15 O1          15.0790     6.3960    22.6170 o          1 UL0      -0.733000
     16 O           16.0190     5.1650    24.0770 o          1 UL0      -0.733000
     17 C25         13.6580     4.7730    23.6840 c5         1 UL0      -0.202000
     18 C30         13.8430     3.4510    24.5060 c5         1 UL0      -0.059900
     19 C29         12.5330     2.6710    24.1990 c5         1 UL0      -0.082400
     20 C27         13.2670     4.1070    22.3230 c5         1 UL0      -0.059900
     21 C23         12.0500     5.4530    26.6810 c5         1 UL0       0.198800
     22 C3          15.7420     6.7460    28.5590 ca         1 UL0      -0.110000
     23 C2          16.8140     7.0950    29.4000 ca         1 UL0      -0.088000
     24 C1          16.7860     8.3060    30.1080 ca         1 UL0      -0.161000
     25 C31         14.6140     8.8160    29.1330 ca         1 UL0      -0.149000
     26 C           15.6850     9.1620    29.9720 ca         1 UL0       0.153000
     27 F           15.6530    10.3280    30.6530 f          1 UL0      -0.200000
     28 N           11.0730     4.8600    29.5760 n3         1 UL0      -0.722600
     29 C11          9.9830     2.6990    31.2880 c6         1 UL0       0.000600
     30 C9          11.9250     3.6960    29.9690 c6         1 UL0       0.168300
     31 C12          9.1410     1.4590    31.5710 cc         1 UL0      -0.115300
     32 N2           9.1540     0.7120    32.7530 na         1 UL0       0.112800
     33 C19          9.9660     0.9700    33.9600 c3         1 UL0       0.088600
     34 C16          7.7500    -0.2910    31.5440 cd         1 UL0       0.257300
     35 C18          5.3690    -1.1540    31.8400 c3         1 UL0      -0.084100
     36 C14          7.7820     1.1310    29.3610 c3         1 UL0       0.003900
     37 H2          12.6960     8.0850    27.4540 hc         1 UL0       0.054700
     38 H3          14.7080     6.0970    26.1390 h1         1 UL0       0.066200
     39 H4          14.2650     7.7090    25.5130 h1         1 UL0       0.066200
     40 H5          13.5440     5.2060    28.2410 hc         1 UL0       0.045700
     41 H6          12.4630     6.3920    30.0730 h1         1 UL0       0.032700
     42 H7          11.1500     6.8960    29.0080 h1         1 UL0       0.032700
     43 H8          10.6430     2.0850    29.2870 hc         1 UL0       0.051700
     44 H9          11.7380     1.6150    30.5780 hc         1 UL0       0.051700
     45 H10          6.1350     2.0550    28.2720 hc         1 UL0       0.031700
     46 H11          5.6180     1.0910    29.6690 hc         1 UL0       0.031700
     47 H12          6.3530     2.6890    29.9180 hc         1 UL0       0.031700
     48 H13          6.5680    -1.3080    30.0510 hc         1 UL0       0.047200
     49 H14          7.1150    -2.3330    31.3580 hc         1 UL0       0.047200
     50 H15          9.9940     2.2000    35.7590 hc         1 UL0       0.046367
     51 H16          9.2570     3.0010    34.3540 hc         1 UL0       0.046367
     52 H17          8.3630     1.7370    35.2270 hc         1 UL0       0.046367
     53 H18          8.4180     4.1710    31.6790 hc         1 UL0       0.051700
     54 H19          8.5510     3.7330    29.9800 hc         1 UL0       0.051700
     55 H20         10.5360     5.4490    31.5580 h1         1 UL0       0.030450
     56 H21          9.4160     5.9950    30.3020 h1         1 UL0       0.030450
     57 H22         12.6110     6.6580    23.5110 h1         1 UL0       0.042700
     58 H23         11.5820     5.3470    24.0290 h1         1 UL0       0.042700
     59 H24         11.1880     3.4270    22.6270 hc         1 UL0       0.017450
     60 H25         12.2660     2.1590    22.0600 hc         1 UL0       0.017450
     61 H27         14.0030     3.6210    25.5750 hc         1 UL0       0.043700
     62 H28         14.7090     2.8750    24.1570 hc         1 UL0       0.043700
     63 H29         11.7140     2.9780    24.8590 hc         1 UL0       0.017450
     64 H30         12.6620     1.5920    24.3410 hc         1 UL0       0.017450
     65 H31         14.1350     3.6310    21.8490 hc         1 UL0       0.043700
     66 H32         12.8720     4.8280    21.5970 hc         1 UL0       0.043700
     67 H33         10.9650     5.6200    26.7340 h1         1 UL0       0.032200
     68 H34         12.2030     4.3770    26.5410 h1         1 UL0       0.032200
     69 H35         15.7880     5.7980    28.0290 ha         1 UL0       0.131000
     70 H36         17.6650     6.4240    29.5030 ha         1 UL0       0.112000
     71 H37         17.6110     8.5810    30.7600 ha         1 UL0       0.120000
     72 H38         13.7700     9.4960    29.0460 ha         1 UL0       0.126000
     73 H40         10.5080     2.9850    32.2090 hc         1 UL0       0.040700
     74 H41         12.6490     3.4560    29.1780 h1         1 UL0       0.030450
     75 H42         12.5020     3.9390    30.8730 h1         1 UL0       0.030450
     76 H43         10.0690     0.0330    34.5220 h1         1 UL0       0.062200
     77 H44         10.9720     1.2760    33.6490 h1         1 UL0       0.062200
     78 H45          4.6550    -1.9100    31.4900 hc         1 UL0       0.033367
     79 H46          5.4780    -1.2620    32.9260 hc         1 UL0       0.033367
     80 H47          4.9490    -0.1620    31.6340 hc         1 UL0       0.033367
     81 H48          7.7710     0.2180    28.7540 hc         1 UL0       0.046200
     82 H49          8.4950     1.7940    28.8620 hc         1 UL0       0.046200
     83 C15          6.3870     1.7810    29.3040 c3         1 UL0      -0.086100
     84 C20          9.3560     2.0450    34.8810 c3         1 UL0      -0.113100
     85 C8          11.8490     6.0760    29.2180 c3         1 UL0       0.174800
@<TRIPOS>BOND
     1     1    32 1   
     2     1    34 2   
     3     2     5 1   
     4     2    12 1   
     5     2    21 1   
     6     3     4 1   
     7     3    22 ar  
     8     3    25 ar  
     9     4     5 1   
    10     4     6 1   
    11     4    37 1   
    12     5    38 1   
    13     5    39 1   
    14     6    21 1   
    15     6    40 1   
    16     6    85 1   
    17     7    29 1   
    18     7    30 1   
    19     7    43 1   
    20     7    44 1   
    21     8    31 2   
    22     8    34 1   
    23     8    36 1   
    24     9    34 1   
    25     9    35 1   
    26     9    48 1   
    27     9    49 1   
    28    10    11 1   
    29    10    29 1   
    30    10    53 1   
    31    10    54 1   
    32    11    28 1   
    33    11    55 1   
    34    11    56 1   
    35    12    17 1   
    36    12    57 1   
    37    12    58 1   
    38    13    15 1   
    39    13    16 1   
    40    13    17 1   
    41    14    19 1   
    42    14    20 1   
    43    14    59 1   
    44    14    60 1   
    45    17    18 1   
    46    17    20 1   
    47    18    19 1   
    48    18    61 1   
    49    18    62 1   
    50    19    63 1   
    51    19    64 1   
    52    20    65 1   
    53    20    66 1   
    54    21    67 1   
    55    21    68 1   
    56    22    23 ar  
    57    22    69 1   
    58    23    24 ar  
    59    23    70 1   
    60    24    26 ar  
    61    24    71 1   
    62    25    26 ar  
    63    25    72 1   
    64    26    27 1   
    65    28    30 1   
    66    28    85 1   
    67    29    31 1   
    68    29    73 1   
    69    30    74 1   
    70    30    75 1   
    71    31    32 1   
    72    32    33 1   
    73    33    76 1   
    74    33    77 1   
    75    33    84 1   
    76    35    78 1   
    77    35    79 1   
    78    35    80 1   
    79    36    81 1   
    80    36    82 1   
    81    36    83 1   
    82    41    85 1   
    83    42    85 1   
    84    45    83 1   
    85    46    83 1   
    86    47    83 1   
    87    50    84 1   
    88    51    84 1   
    89    52    84 1   
@<TRIPOS>SUBSTRUCTURE
     1 UL0         1 TEMP              0 ****  ****    0 ROOT
