@<TRIPOS>MOLECULE
UL0
   85    89     1     0     0
SMALL
abcg2


@<TRIPOS>ATOM
      1 N1           8.1870     0.1040    33.1940 nc         1 UL0      -0.536800
      2 N3          12.5680     6.3110    25.7580 n3         1 UL0      -0.784600
      3 C4          14.9690     6.9780    28.4950 ca         1 UL0      -0.026300
      4 C5          13.6880     6.9020    27.7090 c5         1 UL0      -0.041400
      5 C6          13.8690     6.7790    26.1920 c5         1 UL0       0.200800
      6 C7          12.7990     5.6780    28.0470 c5         1 UL0      -0.064700
      7 C10         11.2250     2.6230    30.8420 c6         1 UL0      -0.068400
      8 C13          8.5890     0.6300    31.0270 cd         1 UL0      -0.187300
      9 C17          7.3060    -1.5780    31.6270 c3         1 UL0      -0.099700
     10 C21          9.0470     3.8530    30.6030 c6         1 UL0      -0.068400
     11 C22          9.8510     5.1080    30.2870 c6         1 UL0       0.168300
     12 C24         12.3240     6.0880    24.3430 c3         1 UL0       0.223800
     13 C26         14.6160     6.1140    23.1970 c          1 UL0       0.713000
     14 C28         11.8080     3.6450    22.4740 c5         1 UL0      -0.082400
     15 O1          14.4240     7.2920    22.7880 o          1 UL0      -0.733000
     16 O           15.7440     5.5700    23.3220 o          1 UL0      -0.733000
     17 C25         13.3480     5.2720    23.5090 c5         1 UL0      -0.202000
     18 C30         13.6340     3.8830    24.0960 c5         1 UL0      -0.059900
     19 C29         12.3880     3.0420    23.7810 c5         1 UL0      -0.082400
     20 C27         12.6620     4.8950    22.1710 c5         1 UL0      -0.059900
     21 C23         12.0840     5.3250    26.7260 c5         1 UL0       0.198800
     22 C3          15.9080     5.9410    28.4560 ca         1 UL0      -0.110000
     23 C2          17.0930     6.0240    29.1760 ca         1 UL0      -0.088000
     24 C1          17.3750     7.1430    29.9560 ca         1 UL0      -0.161000
     25 C31         15.2480     8.1000    29.2760 ca         1 UL0      -0.149000
     26 C           16.4360     8.1550    29.9830 ca         1 UL0       0.153000
     27 F           16.6900     9.2610    30.7360 f          1 UL0      -0.200000
     28 N           11.1140     4.7740    29.6350 n3         1 UL0      -0.722600
     29 C11          9.8580     2.8970    31.4900 c6         1 UL0       0.000600
     30 C9          11.9330     3.9270    30.5010 c6         1 UL0       0.168300
     31 C12          9.1160     1.6390    31.8310 cc         1 UL0      -0.115300
     32 N2           8.8570     1.2760    33.1170 na         1 UL0       0.112800
     33 C19          9.1060     2.0240    34.3420 c3         1 UL0       0.088600
     34 C16          8.0220    -0.2980    31.9330 cd         1 UL0       0.257300
     35 C18          5.7810    -1.4660    31.7560 c3         1 UL0      -0.084100
     36 C14          8.5980     0.5200    29.5310 c3         1 UL0       0.003900
     37 H2          13.1110     7.8100    27.9010 hc         1 UL0       0.054700
     38 H3          14.6850     6.0780    25.9670 h1         1 UL0       0.066200
     39 H4          14.1170     7.7330    25.7230 h1         1 UL0       0.066200
     40 H5          13.4530     4.8510    28.3240 hc         1 UL0       0.045700
     41 H6          12.3930     6.4180    30.0380 h1         1 UL0       0.032700
     42 H7          11.1140     6.7030    28.8580 h1         1 UL0       0.032700
     43 H8          11.0970     2.0350    29.9320 hc         1 UL0       0.051700
     44 H9          11.8470     2.0380    31.5240 hc         1 UL0       0.051700
     45 H10          7.3150     0.7500    27.7880 hc         1 UL0       0.031700
     46 H11          6.4710     0.1580    29.2230 hc         1 UL0       0.031700
     47 H12          6.9310     1.8570    29.1150 hc         1 UL0       0.031700
     48 H13          7.5640    -1.8970    30.6150 hc         1 UL0       0.047200
     49 H14          7.6650    -2.3580    32.3040 hc         1 UL0       0.047200
     50 H15          8.2480     3.5900    35.5530 hc         1 UL0       0.046367
     51 H16          8.0250     3.8310    33.8140 hc         1 UL0       0.046367
     52 H17          7.0530     2.6230    34.6710 hc         1 UL0       0.046367
     53 H18          8.1180     4.1280    31.1080 hc         1 UL0       0.051700
     54 H19          8.7780     3.3580    29.6680 hc         1 UL0       0.051700
     55 H20         10.0250     5.6760    31.2210 h1         1 UL0       0.030450
     56 H21          9.2810     5.7560    29.6190 h1         1 UL0       0.030450
     57 H22         12.2440     7.0580    23.8450 h1         1 UL0       0.042700
     58 H23         11.3440     5.6110    24.2690 h1         1 UL0       0.042700
     59 H24         10.7580     3.9120    22.6060 hc         1 UL0       0.017450
     60 H25         11.8490     2.9340    21.6480 hc         1 UL0       0.017450
     61 H27         13.8810     3.9070    25.1570 hc         1 UL0       0.043700
     62 H28         14.5020     3.4740    23.5790 hc         1 UL0       0.043700
     63 H29         11.6560     3.1140    24.5880 hc         1 UL0       0.017450
     64 H30         12.6330     1.9840    23.6720 hc         1 UL0       0.017450
     65 H31         13.4310     4.6540    21.4320 hc         1 UL0       0.043700
     66 H32         12.0750     5.7220    21.7670 hc         1 UL0       0.043700
     67 H33         10.9960     5.3970    26.8220 h1         1 UL0       0.032200
     68 H34         12.3100     4.2920    26.4440 h1         1 UL0       0.032200
     69 H35         15.7110     5.0610    27.8580 ha         1 UL0       0.131000
     70 H36         17.8080     5.2120    29.1330 ha         1 UL0       0.112000
     71 H37         18.2910     7.2290    30.5250 ha         1 UL0       0.120000
     72 H38         14.5490     8.9240    29.3350 ha         1 UL0       0.126000
     73 H40         10.0570     3.4320    32.4210 hc         1 UL0       0.040700
     74 H41         12.8760     3.7110    29.9970 h1         1 UL0       0.030450
     75 H42         12.1820     4.4650    31.4350 h1         1 UL0       0.030450
     76 H43          9.1270     1.2900    35.1450 h1         1 UL0       0.062200
     77 H44         10.0950     2.4760    34.2820 h1         1 UL0       0.062200
     78 H45          5.3010    -2.4150    31.5110 hc         1 UL0       0.033367
     79 H46          5.5000    -1.1940    32.7750 hc         1 UL0       0.033367
     80 H47          5.3860    -0.7010    31.0840 hc         1 UL0       0.033367
     81 H48          8.8940    -0.4950    29.2480 hc         1 UL0       0.046200
     82 H49          9.3590     1.1800    29.1150 hc         1 UL0       0.046200
     83 C15          7.2490     0.8400    28.8750 c3         1 UL0      -0.086100
     84 C20          8.0410     3.0830    34.6080 c3         1 UL0      -0.113100
     85 C8          11.8420     5.9630    29.1970 c3         1 UL0       0.174800
@<TRIPOS>BOND
     1     1    32 1   
     2     1    34 2   
     3     2     5 1   
     4     2    12 1   
     5     2    21 1   
     6     3     4 1   
     7     3    22 ar  
     8     3    25 ar  
     9     4     5 1   
    10     4     6 1   
    11     4    37 1   
    12     5    38 1   
    13     5    39 1   
    14     6    21 1   
    15     6    40 1   
    16     6    85 1   
    17     7    29 1   
    18     7    30 1   
    19     7    43 1   
    20     7    44 1   
    21     8    31 2   
    22     8    34 1   
    23     8    36 1   
    24     9    34 1   
    25     9    35 1   
    26     9    48 1   
    27     9    49 1   
    28    10    11 1   
    29    10    29 1   
    30    10    53 1   
    31    10    54 1   
    32    11    28 1   
    33    11    55 1   
    34    11    56 1   
    35    12    17 1   
    36    12    57 1   
    37    12    58 1   
    38    13    15 1   
    39    13    16 1   
    40    13    17 1   
    41    14    19 1   
    42    14    20 1   
    43    14    59 1   
    44    14    60 1   
    45    17    18 1   
    46    17    20 1   
    47    18    19 1   
    48    18    61 1   
    49    18    62 1   
    50    19    63 1   
    51    19    64 1   
    52    20    65 1   
    53    20    66 1   
    54    21    67 1   
    55    21    68 1   
    56    22    23 ar  
    57    22    69 1   
    58    23    24 ar  
    59    23    70 1   
    60    24    26 ar  
    61    24    71 1   
    62    25    26 ar  
    63    25    72 1   
    64    26    27 1   
    65    28    30 1   
    66    28    85 1   
    67    29    31 1   
    68    29    73 1   
    69    30    74 1   
    70    30    75 1   
    71    31    32 1   
    72    32    33 1   
    73    33    76 1   
    74    33    77 1   
    75    33    84 1   
    76    35    78 1   
    77    35    79 1   
    78    35    80 1   
    79    36    81 1   
    80    36    82 1   
    81    36    83 1   
    82    41    85 1   
    83    42    85 1   
    84    45    83 1   
    85    46    83 1   
    86    47    83 1   
    87    50    84 1   
    88    51    84 1   
    89    52    84 1   
@<TRIPOS>SUBSTRUCTURE
     1 UL0         1 TEMP              0 ****  ****    0 ROOT
