@<TRIPOS>MOLECULE
UL1
   29    30     1     0     0
SMALL
abcg2


@<TRIPOS>ATOM
      1 CAA          4.4330   453.7500    96.2650 c3         1 UL1       0.142900
      2 CAB          2.0300   457.9380    98.6600 c3         1 UL1       0.141900
      3 CAF          1.6160   452.9870    99.2800 ca         1 UL1      -0.062000
      4 CAG          2.5480   453.1990    98.2750 ca         1 UL1      -0.190000
      5 CAH          1.3350   455.3630    99.5280 ca         1 UL1      -0.137000
      6 CAM          1.0080   454.0550    99.9340 ca         1 UL1      -0.102800
      7 CAN          2.8820   454.4880    97.8900 ca         1 UL1       0.148100
      8 CAO          2.2530   455.5870    98.5250 ca         1 UL1       0.106100
      9 CAP         -1.3880   453.9650   102.9510 c          1 UL1       0.573200
     10 CAQ         -1.2800   456.2150   103.6380 cs         1 UL1       0.330000
     11 CAR         -0.4750   454.5260   101.9400 cc         1 UL1      -0.173600
     12 NAI         -1.7630   454.9680   103.8290 ns         1 UL1      -0.398500
     13 OAJ          3.7640   454.8020    96.9390 os         1 UL1      -0.312100
     14 OAK          2.6180   456.7950    98.0710 os         1 UL1      -0.319100
     15 SAD         -1.5940   457.5330   104.5510 s          1 UL1      -0.414400
     16 SAL         -0.2400   456.2390   102.2420 ss         1 UL1      -0.055200
     17 H1           5.1030   454.2210    95.5520 h1         1 UL1       0.045033
     18 H2           5.0200   453.1390    96.9540 h1         1 UL1       0.045033
     19 H3           3.7350   453.1070    95.7250 h1         1 UL1       0.045033
     20 H4           2.4610   458.8000    98.1560 h1         1 UL1       0.044700
     21 H5           0.9460   457.9560    98.5220 h1         1 UL1       0.044700
     22 H6           2.2540   458.0070    99.7280 h1         1 UL1       0.044700
     23 H7          -0.1930   452.6960   101.0670 ha         1 UL1       0.199000
     24 H8           1.3720   451.9720    99.5640 ha         1 UL1       0.119000
     25 H9           3.0060   452.3430    97.7990 ha         1 UL1       0.126000
     26 H10          0.8370   456.2130    99.9710 ha         1 UL1       0.127000
     27 H11         -2.3830   454.7760   104.6060 hn         1 UL1       0.360500
     28 CAE          0.0840   453.7440   100.9980 cf         1 UL1       0.004800
     29 OAC         -1.7680   452.8220   103.0380 o          1 UL1      -0.485000
@<TRIPOS>BOND
     1     1    13 1   
     2     1    17 1   
     3     1    18 1   
     4     1    19 1   
     5     2    14 1   
     6     2    20 1   
     7     2    21 1   
     8     2    22 1   
     9     3     4 ar  
    10     3     6 ar  
    11     3    24 1   
    12     4     7 ar  
    13     4    25 1   
    14     5     6 ar  
    15     5     8 ar  
    16     5    26 1   
    17     6    28 1   
    18     7     8 ar  
    19     7    13 1   
    20     8    14 1   
    21     9    11 1   
    22     9    12 1   
    23     9    29 2   
    24    10    12 1   
    25    10    15 2   
    26    10    16 1   
    27    11    16 1   
    28    11    28 2   
    29    12    27 1   
    30    23    28 1   
@<TRIPOS>SUBSTRUCTURE
     1 UL1         1 TEMP              0 ****  ****    0 ROOT
