@<TRIPOS>MOLECULE
UL1
   29    30     1     0     0
SMALL
No Charge or Current Charge


@<TRIPOS>ATOM
      1 CAA          4.3540   453.6540    96.0110 c3         1 UL1       0.142900
      2 CAB          2.2000   458.0620    98.7310 c3         1 UL1       0.141900
      3 CAF          1.6860   452.9840    99.3240 ca         1 UL1      -0.062000
      4 CAG          2.5580   453.1810    98.2420 ca         1 UL1      -0.190000
      5 CAH          1.4750   455.3830    99.6090 ca         1 UL1      -0.137000
      6 CAM          1.1320   454.0770   100.0230 ca         1 UL1      -0.102800
      7 CAN          2.8970   454.4870    97.8310 ca         1 UL1       0.148100
      8 CAO          2.3520   455.5950    98.5190 ca         1 UL1       0.106100
      9 CAP         -1.3450   453.9270   103.1030 c          1 UL1       0.573200
     10 CAQ         -1.6870   456.2410   103.5520 cs         1 UL1       0.330000
     11 CAR         -0.5030   454.5400   102.0630 cc         1 UL1      -0.173600
     12 NAI         -1.9140   454.9300   103.8210 ns         1 UL1      -0.398500
     13 OAJ          3.7540   454.7200    96.7670 os         1 UL1      -0.312100
     14 OAK          2.7000   456.8700    98.0980 os         1 UL1      -0.319100
     15 SAD         -2.3340   457.5450   104.3700 s          1 UL1      -0.414400
     16 SAL         -0.5720   456.3000   102.1670 ss         1 UL1      -0.055200
     17 H1           4.9940   454.0630    95.2190 h1         1 UL1       0.045033
     18 H2           4.9760   453.0200    96.6560 h1         1 UL1       0.045033
     19 H3           3.5850   453.0300    95.5380 h1         1 UL1       0.045033
     20 H4           2.6050   458.9530    98.2360 h1         1 UL1       0.044700
     21 H5           1.1060   458.1070    98.6690 h1         1 UL1       0.044700
     22 H6           2.4970   458.0970    99.7870 h1         1 UL1       0.044700
     23 H7           0.0800   452.7210   101.3180 ha         1 UL1       0.199000
     24 H8           1.4410   451.9650    99.6200 ha         1 UL1       0.119000
     25 H9           2.9580   452.3080    97.7360 ha         1 UL1       0.126000
     26 H10          1.0630   456.2340   100.1290 ha         1 UL1       0.127000
     27 H11         -2.5280   454.6770   104.5820 hn         1 UL1       0.360500
     28 CAE          0.2170   453.7930   101.1590 cf         1 UL1       0.004800
     29 OAC         -1.5260   452.7390   103.3160 o          1 UL1      -0.485000
@<TRIPOS>BOND
     1     1    13 1   
     2     1    17 1   
     3     1    18 1   
     4     1    19 1   
     5     2    14 1   
     6     2    20 1   
     7     2    21 1   
     8     2    22 1   
     9     3     4 ar  
    10     3     6 ar  
    11     3    24 1   
    12     4     7 ar  
    13     4    25 1   
    14     5     6 ar  
    15     5     8 ar  
    16     5    26 1   
    17     6    28 1   
    18     7     8 ar  
    19     7    13 1   
    20     8    14 1   
    21     9    11 1   
    22     9    12 1   
    23     9    29 2   
    24    10    12 1   
    25    10    15 2   
    26    10    16 1   
    27    11    16 1   
    28    11    28 2   
    29    12    27 1   
    30    23    28 1   
@<TRIPOS>SUBSTRUCTURE
     1 UL1         1 TEMP              0 ****  ****    0 ROOT
