@<TRIPOS>MOLECULE
UL2
   48    50     1     0     0
SMALL
No Charge or Current Charge


@<TRIPOS>ATOM
      1 C15        -18.6630    22.2980     7.3050 c          1 UL2       0.614700
      2 C17        -18.4820    22.5630     5.8240 ca         1 UL2      -0.140600
      3 C20        -17.6940    21.8790     3.5710 ca         1 UL2      -0.087000
      4 C22        -18.1690    23.1000     3.0930 ca         1 UL2       0.070100
      5 C24        -18.7190    24.8540     1.7770 c          1 UL2       0.687100
      6 C28        -18.7690    24.0130     3.9200 ca         1 UL2      -0.018400
      7 C01        -14.6150    19.3650     9.7640 c3         1 UL2      -0.090100
      8 C08        -17.1600    19.6790     9.5330 c3         1 UL2      -0.087400
      9 C11        -18.3360    20.6260     9.1670 c3         1 UL2       0.122700
     10 N13        -18.2170    21.0840     7.7750 ns         1 UL2      -0.494900
     11 O16        -19.1780    23.1170     8.0540 o          1 UL2      -0.611100
     12 C18        -17.8550    21.6140     4.9520 ca         1 UL2      -0.090000
     13 O23        -18.1380    23.6000     1.8120 os         1 UL2      -0.287200
     14 O25        -18.8680    25.5920     0.8180 o          1 UL2      -0.498000
     15 N26        -19.0910    25.0710     3.0780 ns         1 UL2      -0.522600
     16 C29        -18.9490    23.7940     5.2870 ca         1 UL2      -0.054000
     17 C31        -19.7570    20.0290     9.4380 c3         1 UL2       0.202600
     18 O33        -19.9840    18.8610     8.6300 oh         1 UL2      -0.664000
     19 C35        -20.0110    19.7210    10.9250 ca         1 UL2      -0.131300
     20 C36        -19.6850    18.4480    11.4490 ca         1 UL2      -0.095000
     21 C38        -19.9010    18.1470    12.8030 ca         1 UL2      -0.118000
     22 C40        -20.4460    19.1150    13.6570 ca         1 UL2      -0.100000
     23 C42        -20.7720    20.3840    13.1550 ca         1 UL2      -0.114000
     24 C44        -20.5590    20.7010    11.7980 ca         1 UL2      -0.057300
     25 C45        -20.9280    22.1010    11.3110 c3         1 UL2      -0.058800
     26 H1         -17.2180    21.1620     2.9060 ha         1 UL2       0.142000
     27 H2         -13.6430    19.8440     9.5990 hc         1 UL2       0.032367
     28 H3         -14.7000    19.1210    10.8300 hc         1 UL2       0.032367
     29 H4         -14.6380    18.4300     9.1910 hc         1 UL2       0.032367
     30 H5         -15.6140    20.5560     8.2680 hc         1 UL2       0.040200
     31 H6         -15.6880    21.2380     9.8920 hc         1 UL2       0.040200
     32 H8         -17.2360    18.7570     8.9440 hc         1 UL2       0.055200
     33 H9         -18.2370    21.5080     9.8130 h1         1 UL2       0.086700
     34 H10        -17.8380    20.4400     7.0960 hn         1 UL2       0.323500
     35 H11        -17.4840    20.6640     5.3290 ha         1 UL2       0.124000
     36 H12        -19.5530    25.9270     3.3690 hn         1 UL2       0.479000
     37 H13        -19.4310    24.5450     5.9110 ha         1 UL2       0.148000
     38 H14        -20.4810    20.7910     9.1250 h1         1 UL2       0.048700
     39 H15        -20.8760    18.5290     8.8680 ho         1 UL2       0.449000
     40 H16        -19.2520    17.6820    10.8080 ha         1 UL2       0.121000
     41 H17        -19.6440    17.1640    13.1900 ha         1 UL2       0.114000
     42 H18        -20.6150    18.8830    14.7060 ha         1 UL2       0.114000
     43 H19        -21.1930    21.1260    13.8300 ha         1 UL2       0.113000
     44 H20        -21.7500    22.0630    10.5860 hc         1 UL2       0.049367
     45 H21        -21.2540    22.7460    12.1350 hc         1 UL2       0.049367
     46 H22        -20.0760    22.5970    10.8340 hc         1 UL2       0.049367
     47 H7         -17.2510    19.3890    10.5860 hc         1 UL2       0.055200
     48 C05        -15.7580    20.3010     9.3250 c3         1 UL2      -0.075400
@<TRIPOS>BOND
     1     1     2 1   
     2     1    10 1   
     3     1    11 2   
     4     2    12 ar  
     5     2    16 ar  
     6     3     4 ar  
     7     3    12 ar  
     8     3    26 1   
     9     4     6 ar  
    10     4    13 1   
    11     5    13 1   
    12     5    14 2   
    13     5    15 1   
    14     6    15 1   
    15     6    16 ar  
    16     7    27 1   
    17     7    28 1   
    18     7    29 1   
    19     7    48 1   
    20     8     9 1   
    21     8    32 1   
    22     8    47 1   
    23     8    48 1   
    24     9    10 1   
    25     9    17 1   
    26     9    33 1   
    27    10    34 1   
    28    12    35 1   
    29    15    36 1   
    30    16    37 1   
    31    17    18 1   
    32    17    19 1   
    33    17    38 1   
    34    18    39 1   
    35    19    20 ar  
    36    19    24 ar  
    37    20    21 ar  
    38    20    40 1   
    39    21    22 ar  
    40    21    41 1   
    41    22    23 ar  
    42    22    42 1   
    43    23    24 ar  
    44    23    43 1   
    45    24    25 1   
    46    25    44 1   
    47    25    45 1   
    48    25    46 1   
    49    30    48 1   
    50    31    48 1   
@<TRIPOS>SUBSTRUCTURE
     1 UL2         1 TEMP              0 ****  ****    0 ROOT
