@<TRIPOS>MOLECULE
UL2
   48    50     1     0     0
SMALL
abcg2


@<TRIPOS>ATOM
      1 C15        -18.5420    22.3020     7.3630 c          1 UL2       0.614700
      2 C17        -18.3540    22.5650     5.9010 ca         1 UL2      -0.140600
      3 C20        -17.3220    22.0520     3.7550 ca         1 UL2      -0.087000
      4 C22        -18.0000    23.1310     3.2460 ca         1 UL2       0.070100
      5 C24        -18.8060    24.7080     1.9190 c          1 UL2       0.687100
      6 C28        -18.8310    23.9270     4.0240 ca         1 UL2      -0.018400
      7 C01        -14.7780    19.3940     9.6470 c3         1 UL2      -0.090100
      8 C08        -17.2820    19.6440     9.4230 c3         1 UL2      -0.087400
      9 C11        -18.4530    20.5790     9.1290 c3         1 UL2       0.122700
     10 N13        -18.3900    21.0260     7.7520 ns         1 UL2      -0.494900
     11 O16        -18.8180    23.2150     8.1310 o          1 UL2      -0.611100
     12 C18        -17.5170    21.7790     5.1080 ca         1 UL2      -0.090000
     13 O23        -17.9890    23.6120     1.9750 os         1 UL2      -0.287200
     14 O25        -18.9850    25.3340     0.9130 o          1 UL2      -0.498000
     15 N26        -19.3160    24.8920     3.1660 ns         1 UL2      -0.522600
     16 C29        -19.0180    23.6720     5.3630 ca         1 UL2      -0.054000
     17 C31        -19.8370    19.9710     9.4240 c3         1 UL2       0.202600
     18 O33        -19.9560    18.8100     8.6400 oh         1 UL2      -0.664000
     19 C35        -20.0290    19.7170    10.9050 ca         1 UL2      -0.131300
     20 C36        -19.7700    18.4560    11.4350 ca         1 UL2      -0.095000
     21 C38        -19.9090    18.2040    12.7930 ca         1 UL2      -0.118000
     22 C40        -20.3180    19.2230    13.6400 ca         1 UL2      -0.100000
     23 C42        -20.5900    20.4790    13.1160 ca         1 UL2      -0.114000
     24 C44        -20.4560    20.7470    11.7550 ca         1 UL2      -0.057300
     25 C45        -20.8030    22.1160    11.2380 c3         1 UL2      -0.058800
     26 H1         -16.6640    21.4480     3.1470 ha         1 UL2       0.142000
     27 H2         -13.8130    19.8870     9.5300 hc         1 UL2       0.032367
     28 H3         -14.8570    19.0630    10.6840 hc         1 UL2       0.032367
     29 H4         -14.7720    18.5030     9.0170 hc         1 UL2       0.032367
     30 H5         -15.7910    20.6690     8.2460 hc         1 UL2       0.040200
     31 H6         -15.8960    21.2160     9.9050 hc         1 UL2       0.040200
     32 H8         -17.3250    18.7650     8.7720 hc         1 UL2       0.055200
     33 H9         -18.3490    21.4650     9.7570 h1         1 UL2       0.086700
     34 H10        -18.2990    20.3100     7.0470 hn         1 UL2       0.323500
     35 H11        -16.9700    20.9510     5.5380 ha         1 UL2       0.124000
     36 H12        -19.9460    25.6430     3.4020 hn         1 UL2       0.479000
     37 H13        -19.6570    24.2940     5.9740 ha         1 UL2       0.148000
     38 H14        -20.5770    20.7180     9.1050 h1         1 UL2       0.048700
     39 H15        -20.8670    18.5030     8.6830 ho         1 UL2       0.449000
     40 H16        -19.4550    17.6560    10.7790 ha         1 UL2       0.121000
     41 H17        -19.6980    17.2170    13.1840 ha         1 UL2       0.114000
     42 H18        -20.4330    19.0430    14.7010 ha         1 UL2       0.114000
     43 H19        -20.9220    21.2710    13.7770 ha         1 UL2       0.113000
     44 H20        -21.6570    22.0810    10.5570 hc         1 UL2       0.049367
     45 H21        -21.0690    22.7820    12.0570 hc         1 UL2       0.049367
     46 H22        -19.9850    22.5820    10.6890 hc         1 UL2       0.049367
     47 H7         -17.3800    19.2720    10.4460 hc         1 UL2       0.055200
     48 C05        -15.9250    20.3220     9.2740 c3         1 UL2      -0.075400
@<TRIPOS>BOND
     1     1     2 1   
     2     1    10 1   
     3     1    11 2   
     4     2    12 ar  
     5     2    16 ar  
     6     3     4 ar  
     7     3    12 ar  
     8     3    26 1   
     9     4     6 ar  
    10     4    13 1   
    11     5    13 1   
    12     5    14 2   
    13     5    15 1   
    14     6    15 1   
    15     6    16 ar  
    16     7    27 1   
    17     7    28 1   
    18     7    29 1   
    19     7    48 1   
    20     8     9 1   
    21     8    32 1   
    22     8    47 1   
    23     8    48 1   
    24     9    10 1   
    25     9    17 1   
    26     9    33 1   
    27    10    34 1   
    28    12    35 1   
    29    15    36 1   
    30    16    37 1   
    31    17    18 1   
    32    17    19 1   
    33    17    38 1   
    34    18    39 1   
    35    19    20 ar  
    36    19    24 ar  
    37    20    21 ar  
    38    20    40 1   
    39    21    22 ar  
    40    21    41 1   
    41    22    23 ar  
    42    22    42 1   
    43    23    24 ar  
    44    23    43 1   
    45    24    25 1   
    46    25    44 1   
    47    25    45 1   
    48    25    46 1   
    49    30    48 1   
    50    31    48 1   
@<TRIPOS>SUBSTRUCTURE
     1 UL2         1 TEMP              0 ****  ****    0 ROOT
