@<TRIPOS>MOLECULE
UL4
   40    41     1     0     0
SMALL
No Charge or Current Charge


@<TRIPOS>ATOM
      1 O4           6.8690    -0.0550    -0.2660 o          1 UL4      -0.714000
      2 C16          5.8140     0.5640    -0.2430 c          1 UL4       0.714600
      3 O3           5.7620     1.7860    -0.2620 o          1 UL4      -0.714000
      4 C15          4.5140    -0.2180    -0.1900 ca         1 UL4      -0.146600
      5 C14          4.5210    -1.6300    -0.1670 ca         1 UL4      -0.062000
      6 C13          3.3160    -2.3470    -0.1180 ca         1 UL4      -0.157000
      7 C12          2.0870    -1.6720    -0.0910 ca         1 UL4      -0.115000
      8 C17          3.2690     0.4540    -0.1620 ca         1 UL4      -0.027000
      9 C11          2.0470    -0.2570    -0.1130 ca         1 UL4      -0.193600
     10 C10          0.7380     0.5140    -0.0850 c          1 UL4       0.622700
     11 O2           0.7230     1.7400    -0.1040 o          1 UL4      -0.583100
     12 N           -0.4120    -0.2620    -0.0360 ns         1 UL4      -0.150000
     13 C9          -1.8020     0.0530     0.0020 ca         1 UL4      -0.047000
     14 C8          -2.3020     1.3760    -0.0040 ca         1 UL4      -0.045000
     15 C5          -3.6930     1.6310     0.0350 ca         1 UL4      -0.193600
     16 C6          -4.1940     3.0640     0.0270 c          1 UL4       0.584700
     17 O1          -3.4090     4.0040    -0.0130 o          1 UL4      -0.521100
     18 C7          -5.6990     3.3440     0.0680 c3         1 UL4      -0.194100
     19 C4          -4.5830     0.5350     0.0800 ca         1 UL4      -0.071000
     20 C3          -4.0950    -0.7800     0.0860 ca         1 UL4      -0.202000
     21 C2          -2.7080    -1.0270     0.0470 ca         1 UL4       0.120100
     22 O           -2.1920    -2.3110     0.0520 os         1 UL4      -0.354100
     23 C1          -3.0280    -3.4790     0.0970 c3         1 UL4       0.171600
     24 C           -2.1050    -4.7070     0.0880 c3         1 UL4      -0.097100
     25 H2           5.4620    -2.1770    -0.1880 ha         1 UL4       0.130000
     26 H3           3.3370    -3.4340    -0.1010 ha         1 UL4       0.089000
     27 H4           1.1780    -2.2670    -0.0530 ha         1 UL4       0.084000
     28 H5           3.2530     1.5430    -0.1800 ha         1 UL4       0.151000
     29 H6          -0.2330    -1.2570    -0.0260 hn         1 UL4       0.167000
     30 H7          -1.6200     2.2200    -0.0390 ha         1 UL4       0.166000
     31 H8          -6.1310     2.8510     0.9460 hc         1 UL4       0.054700
     32 H9          -5.9290     4.4160     0.0580 hc         1 UL4       0.054700
     33 H10         -6.1840     2.8230    -0.7650 hc         1 UL4       0.054700
     34 H11         -5.6600     0.6840     0.1110 ha         1 UL4       0.104000
     35 H12         -4.8120    -1.5960     0.1220 ha         1 UL4       0.110000
     36 H13         -3.6380    -3.4870     1.0100 h1         1 UL4       0.031200
     37 H14         -3.6940    -3.5160    -0.7750 h1         1 UL4       0.031200
     38 H15         -1.4940    -4.7240    -0.8220 hc         1 UL4       0.048700
     39 H16         -1.4380    -4.6950     0.9590 hc         1 UL4       0.048700
     40 H17         -2.6980    -5.6280     0.1220 hc         1 UL4       0.048700
@<TRIPOS>BOND
     1     1     2 1   
     2     2     3 1   
     3     2     4 1   
     4     4     5 ar  
     5     4     8 ar  
     6     5     6 ar  
     7     5    25 1   
     8     6     7 ar  
     9     6    26 1   
    10     7     9 ar  
    11     7    27 1   
    12     8     9 ar  
    13     8    28 1   
    14     9    10 1   
    15    10    11 2   
    16    10    12 1   
    17    12    13 1   
    18    12    29 1   
    19    13    14 ar  
    20    13    21 ar  
    21    14    15 ar  
    22    14    30 1   
    23    15    16 1   
    24    15    19 ar  
    25    16    17 2   
    26    16    18 1   
    27    18    31 1   
    28    18    32 1   
    29    18    33 1   
    30    19    20 ar  
    31    19    34 1   
    32    20    21 ar  
    33    20    35 1   
    34    21    22 1   
    35    22    23 1   
    36    23    24 1   
    37    23    36 1   
    38    23    37 1   
    39    24    38 1   
    40    24    39 1   
    41    24    40 1   
@<TRIPOS>SUBSTRUCTURE
     1 UL4         1 TEMP              0 ****  ****    0 ROOT
