@<TRIPOS>MOLECULE
UL4
   40    41     1     0     0
SMALL
bcc


@<TRIPOS>ATOM
      1 O4           6.6160    -0.4130     0.6870 o          1 UL4      -0.819300
      2 C16          5.5360     0.1730     0.8860 c          1 UL4       0.925200
      3 O3           5.3330     1.1370     1.6470 o          1 UL4      -0.819300
      4 C15          4.3280    -0.3460     0.1110 ca         1 UL4      -0.146600
      5 C14          4.4580    -1.3880    -0.8040 ca         1 UL4      -0.080000
      6 C13          3.3590    -1.8480    -1.5150 ca         1 UL4      -0.175000
      7 C12          2.1080    -1.2860    -1.3090 ca         1 UL4      -0.133000
      8 C17          3.0730     0.2190     0.3010 ca         1 UL4      -0.045000
      9 C11          1.9570    -0.2510    -0.3870 ca         1 UL4      -0.193600
     10 C10          0.6440     0.4070    -0.1220 c          1 UL4       0.689700
     11 O2           0.5740     1.5520     0.2910 o          1 UL4      -0.583100
     12 N           -0.4450    -0.3700    -0.3620 ns         1 UL4      -0.476100
     13 C9          -1.7840    -0.0150    -0.1670 ca         1 UL4       0.045600
     14 C8          -2.2740     1.2620    -0.3560 ca         1 UL4      -0.063000
     15 C5          -3.6290     1.5500    -0.1600 ca         1 UL4      -0.193600
     16 C6          -4.1020     2.9400    -0.3740 c          1 UL4       0.584700
     17 O1          -3.3260     3.8150    -0.7070 o          1 UL4      -0.521100
     18 C7          -5.5640     3.2370    -0.1720 c3         1 UL4      -0.194100
     19 C4          -4.4900     0.5250     0.2140 ca         1 UL4      -0.089000
     20 C3          -4.0200    -0.7670     0.3900 ca         1 UL4      -0.220000
     21 C2          -2.6720    -1.0480     0.2080 ca         1 UL4       0.120100
     22 O           -2.1170    -2.2530     0.3610 os         1 UL4      -0.330900
     23 C1          -2.9370    -3.3830     0.6510 c3         1 UL4       0.148400
     24 C           -2.0420    -4.5970     0.7150 c3         1 UL4      -0.097100
     25 H2           5.4300    -1.8370    -0.9630 ha         1 UL4       0.148000
     26 H3           3.4740    -2.6460    -2.2370 ha         1 UL4       0.107000
     27 H4           1.2710    -1.6430    -1.8960 ha         1 UL4       0.102000
     28 H5           2.9640     1.0310     1.0070 ha         1 UL4       0.169000
     29 H6          -0.2800    -1.3510    -0.5240 hn         1 UL4       0.333500
     30 H7          -1.6090     2.0530    -0.6680 ha         1 UL4       0.184000
     31 H8          -5.8780     2.9920     0.8430 hc         1 UL4       0.054700
     32 H9          -5.7610     4.2910    -0.3540 hc         1 UL4       0.054700
     33 H10         -6.1800     2.6440    -0.8500 hc         1 UL4       0.054700
     34 H11         -5.5430     0.7110     0.3740 ha         1 UL4       0.122000
     35 H12         -4.7140    -1.5450     0.6770 ha         1 UL4       0.128000
     36 H13         -3.4540    -3.2330     1.6030 h1         1 UL4       0.031200
     37 H14         -3.6950    -3.5010    -0.1290 h1         1 UL4       0.031200
     38 H15         -1.5300    -4.7620    -0.2340 hc         1 UL4       0.048700
     39 H16         -1.2960    -4.5010     1.5030 hc         1 UL4       0.048700
     40 H17         -2.6460    -5.4780     0.9280 hc         1 UL4       0.048700
@<TRIPOS>BOND
     1     1     2 1   
     2     2     3 1   
     3     2     4 1   
     4     4     5 ar  
     5     4     8 ar  
     6     5     6 ar  
     7     5    25 1   
     8     6     7 ar  
     9     6    26 1   
    10     7     9 ar  
    11     7    27 1   
    12     8     9 ar  
    13     8    28 1   
    14     9    10 1   
    15    10    11 2   
    16    10    12 1   
    17    12    13 1   
    18    12    29 1   
    19    13    14 ar  
    20    13    21 ar  
    21    14    15 ar  
    22    14    30 1   
    23    15    16 1   
    24    15    19 ar  
    25    16    17 2   
    26    16    18 1   
    27    18    31 1   
    28    18    32 1   
    29    18    33 1   
    30    19    20 ar  
    31    19    34 1   
    32    20    21 ar  
    33    20    35 1   
    34    21    22 1   
    35    22    23 1   
    36    23    24 1   
    37    23    36 1   
    38    23    37 1   
    39    24    38 1   
    40    24    39 1   
    41    24    40 1   
@<TRIPOS>SUBSTRUCTURE
     1 UL4         1 TEMP              0 ****  ****    0 ROOT
