@<TRIPOS>MOLECULE
UL5
   45    47     1     0     0
SMALL
abcg2


@<TRIPOS>ATOM
      1 N1          41.3990    17.4950     8.5490 nb         1 UL5      -0.676000
      2 C4          44.0900    17.5660     9.1910 ca         1 UL5      -0.119600
      3 C5          43.1690    18.3340     9.8860 ca         1 UL5      -0.091000
      4 C6          41.8210    18.2610     9.5440 ca         1 UL5       0.352300
      5 C7          40.7820    19.0130    10.3290 c3         1 UL5      -0.081400
      6 C8          40.3150    18.1890    11.5050 ca         1 UL5      -0.087300
      7 C10         39.0590    16.3220    12.3820 ca         1 UL5      -0.110500
      8 C13         40.7630    18.4690    12.7920 ca         1 UL5      -0.100500
      9 C15         47.6520    16.4780     9.7120 cx         1 UL5       0.046700
     10 C17         48.1810    15.2290    10.3420 cx         1 UL5      -0.129700
     11 O1          45.9970    18.7120     9.9980 o          1 UL5      -0.585100
     12 C14         45.5390    17.6660     9.5690 c          1 UL5       0.613700
     13 N2          46.2580    16.5440     9.4140 ns         1 UL5      -0.475900
     14 C18         49.5090    14.6740     9.9060 c3         1 UL5      -0.063100
     15 C16         48.1020    16.4920    11.1420 cx         1 UL5      -0.121400
     16 C3          43.6340    16.7660     8.1490 ca         1 UL5      -0.094000
     17 C2          42.2780    16.7730     7.8650 ca         1 UL5       0.289500
     18 C1          41.7520    15.9350     6.7310 c          1 UL5       0.504600
     19 O           42.5000    15.2420     6.0550 o          1 UL5      -0.608100
     20 N           40.4350    16.0180     6.5430 ns         1 UL5      -0.486900
     21 C           39.7520    15.2920     5.5010 c3         1 UL5       0.096300
     22 C12         40.3650    17.6830    13.8670 ca         1 UL5      -0.110500
     23 C11         39.5130    16.6060    13.6650 ca         1 UL5      -0.107000
     24 C9          39.4580    17.1080    11.3110 ca         1 UL5      -0.100500
     25 H1          43.4850    18.9780    10.6960 ha         1 UL5       0.146000
     26 H2          41.1960    19.9600    10.6790 hc         1 UL5       0.066700
     27 H3          39.9410    19.2420     9.6720 hc         1 UL5       0.066700
     28 H4          38.3900    15.4870    12.2160 ha         1 UL5       0.113500
     29 H5          41.4290    19.3080    12.9570 ha         1 UL5       0.114500
     30 H6          48.2940    16.9730     8.9890 h1         1 UL5       0.092700
     31 H7          47.4280    14.4840    10.5820 hc         1 UL5       0.077700
     32 H8          45.8060    15.7030     9.0900 hn         1 UL5       0.325500
     33 H9          49.9580    14.0710    10.6970 hc         1 UL5       0.040033
     34 H10         49.4040    14.0430     9.0230 hc         1 UL5       0.040033
     35 H11         50.2110    15.4740     9.6650 hc         1 UL5       0.040033
     36 H12         47.3410    16.5670    11.9090 hc         1 UL5       0.081200
     37 H13         49.0220    17.0170    11.3690 hc         1 UL5       0.081200
     38 H14         44.3030    16.1680     7.5450 ha         1 UL5       0.149000
     39 H15         39.9120    16.6220     7.1590 hn         1 UL5       0.343500
     40 H16         38.6910    15.5170     5.5630 h1         1 UL5       0.041033
     41 H17         40.1080    15.5800     4.5110 h1         1 UL5       0.041033
     42 H18         39.8810    14.2150     5.6100 h1         1 UL5       0.041033
     43 H19         40.7220    17.9140    14.8630 ha         1 UL5       0.113500
     44 H20         39.2020    15.9940    14.5010 ha         1 UL5       0.113000
     45 H21         39.1030    16.8780    10.3130 ha         1 UL5       0.114500
@<TRIPOS>BOND
     1     1     4 ar  
     2     1    17 ar  
     3     2     3 ar  
     4     2    12 1   
     5     2    16 ar  
     6     3     4 ar  
     7     3    25 1   
     8     4     5 1   
     9     5     6 1   
    10     5    26 1   
    11     5    27 1   
    12     6     8 ar  
    13     6    24 ar  
    14     7    23 ar  
    15     7    24 ar  
    16     7    28 1   
    17     8    22 ar  
    18     8    29 1   
    19     9    10 1   
    20     9    13 1   
    21     9    15 1   
    22     9    30 1   
    23    10    14 1   
    24    10    15 1   
    25    10    31 1   
    26    11    12 2   
    27    12    13 1   
    28    13    32 1   
    29    14    33 1   
    30    14    34 1   
    31    14    35 1   
    32    15    36 1   
    33    15    37 1   
    34    16    17 ar  
    35    16    38 1   
    36    17    18 1   
    37    18    19 2   
    38    18    20 1   
    39    20    21 1   
    40    20    39 1   
    41    21    40 1   
    42    21    41 1   
    43    21    42 1   
    44    22    23 ar  
    45    22    43 1   
    46    23    44 1   
    47    24    45 1   
@<TRIPOS>SUBSTRUCTURE
     1 UL5         1 TEMP              0 ****  ****    0 ROOT
