@<TRIPOS>MOLECULE
UL5
   45    47     1     0     0
SMALL
No Charge or Current Charge


@<TRIPOS>ATOM
      1 N1          41.3130    17.2900     8.4790 nb         1 UL5      -0.676000
      2 C4          43.9250    17.2500     9.6000 ca         1 UL5      -0.119600
      3 C5          42.8920    18.0360    10.1540 ca         1 UL5      -0.091000
      4 C6          41.6130    18.0280     9.5710 ca         1 UL5       0.352300
      5 C7          40.4870    18.8660    10.1590 c3         1 UL5      -0.081400
      6 C8          40.1120    18.4120    11.5660 ca         1 UL5      -0.087300
      7 C10         39.0610    16.7800    13.0450 ca         1 UL5      -0.110500
      8 C13         40.4780    19.1800    12.6890 ca         1 UL5      -0.100500
      9 C15         47.6200    16.3510    10.1040 cx         1 UL5       0.046700
     10 C17         48.4510    15.2130     9.5610 cx         1 UL5      -0.129700
     11 O1          45.5580    17.9330    11.2200 o          1 UL5      -0.585100
     12 C14         45.3030    17.2580    10.2310 c          1 UL5       0.613700
     13 N2          46.2650    16.4670     9.6380 ns         1 UL5      -0.475900
     14 C18         49.9280    15.4100     9.2470 c3         1 UL5      -0.063100
     15 C16         47.9610    15.1760    10.9890 cx         1 UL5      -0.121400
     16 C3          43.6000    16.4790     8.4570 ca         1 UL5      -0.094000
     17 C2          42.2930    16.5180     7.9210 ca         1 UL5       0.289500
     18 C1          41.9550    15.6770     6.6820 c          1 UL5       0.504600
     19 O           42.7660    14.9540     6.1110 o          1 UL5      -0.608100
     20 N           40.6520    15.7790     6.2320 ns         1 UL5      -0.486900
     21 C           40.1060    15.0710     5.0730 c3         1 UL5       0.096300
     22 C12         40.1370    18.7500    13.9830 ca         1 UL5      -0.110500
     23 C11         39.4280    17.5500    14.1620 ca         1 UL5      -0.107000
     24 C9          39.4020    17.2100    11.7510 ca         1 UL5      -0.100500
     25 H1          43.0710    18.6500    11.0320 ha         1 UL5       0.146000
     26 H2          40.7900    19.9190    10.1660 hc         1 UL5       0.066700
     27 H3          39.6010    18.8220     9.5140 hc         1 UL5       0.066700
     28 H4          38.5130    15.8500    13.1820 ha         1 UL5       0.113500
     29 H5          41.0290    20.1100    12.5620 ha         1 UL5       0.114500
     30 H6          48.1150    17.3040    10.3010 h1         1 UL5       0.092700
     31 H7          47.9670    14.5330     8.8630 hc         1 UL5       0.077700
     32 H8          45.9830    15.9450     8.8190 hn         1 UL5       0.325500
     33 H9          50.4660    14.4560     9.2940 hc         1 UL5       0.040033
     34 H10         50.0590    15.8230     8.2400 hc         1 UL5       0.040033
     35 H11         50.4020    16.0990     9.9570 hc         1 UL5       0.040033
     36 H12         47.1670    14.4750    11.2350 hc         1 UL5       0.081200
     37 H13         48.6840    15.3400    11.7840 hc         1 UL5       0.081200
     38 H14         44.3390    15.8480     7.9730 ha         1 UL5       0.149000
     39 H15         40.0510    16.4010     6.7660 hn         1 UL5       0.343500
     40 H16         39.0490    15.3370     4.9440 h1         1 UL5       0.041033
     41 H17         40.6630    15.3540     4.1710 h1         1 UL5       0.041033
     42 H18         40.1900    13.9870     5.2290 h1         1 UL5       0.041033
     43 H19         40.4220    19.3460    14.8470 ha         1 UL5       0.113500
     44 H20         39.1640    17.2170    15.1630 ha         1 UL5       0.113000
     45 H21         39.1170    16.6070    10.8910 ha         1 UL5       0.114500
@<TRIPOS>BOND
     1     1     4 ar  
     2     1    17 ar  
     3     2     3 ar  
     4     2    12 1   
     5     2    16 ar  
     6     3     4 ar  
     7     3    25 1   
     8     4     5 1   
     9     5     6 1   
    10     5    26 1   
    11     5    27 1   
    12     6     8 ar  
    13     6    24 ar  
    14     7    23 ar  
    15     7    24 ar  
    16     7    28 1   
    17     8    22 ar  
    18     8    29 1   
    19     9    10 1   
    20     9    13 1   
    21     9    15 1   
    22     9    30 1   
    23    10    14 1   
    24    10    15 1   
    25    10    31 1   
    26    11    12 2   
    27    12    13 1   
    28    13    32 1   
    29    14    33 1   
    30    14    34 1   
    31    14    35 1   
    32    15    36 1   
    33    15    37 1   
    34    16    17 ar  
    35    16    38 1   
    36    17    18 1   
    37    18    19 2   
    38    18    20 1   
    39    20    21 1   
    40    20    39 1   
    41    21    40 1   
    42    21    41 1   
    43    21    42 1   
    44    22    23 ar  
    45    22    43 1   
    46    23    44 1   
    47    24    45 1   
@<TRIPOS>SUBSTRUCTURE
     1 UL5         1 TEMP              0 ****  ****    0 ROOT
