@<TRIPOS>MOLECULE
UL6
   45    46     1     0     0
SMALL
abcg2


@<TRIPOS>ATOM
      1 C1          28.8300    63.0060   -13.4130 c3         1 UL6      -0.176100
      2 C2          29.7580    63.8430   -14.2600 c          1 UL6       0.595100
      3 O1          29.5380    65.0360   -14.4690 o          1 UL6      -0.594100
      4 N1          30.8340    63.1930   -14.7630 ns         1 UL6      -0.501900
      5 C3          31.9300    63.8640   -15.4310 c6         1 UL6       0.036700
      6 C4          32.0410    63.4170   -16.8930 c6         1 UL6       0.167300
      7 O2          30.8790    63.7820   -17.6270 oh         1 UL6      -0.644000
      8 C5          33.2510    64.0410   -17.5690 c6         1 UL6       0.146300
      9 O3          33.4230    63.4050   -18.8340 oh         1 UL6      -0.711000
     10 C6          34.5100    63.8500   -16.7050 c6         1 UL6       0.147300
     11 C7          35.6890    64.6170   -17.2590 c3         1 UL6       0.168600
     12 O4          36.8720    64.2090   -16.5740 oh         1 UL6      -0.715000
     13 O5          34.2840    64.3100   -15.3720 os         1 UL6      -0.464000
     14 C8          33.2500    63.5950   -14.7120 c6         1 UL6       0.378300
     15 O6          33.1750    64.0590   -13.4050 os         1 UL6      -0.431000
     16 C9          33.8030    63.2420   -12.4150 c3         1 UL6       0.169600
     17 C10         32.8360    62.2510   -11.7990 c6         1 UL6       0.094300
     18 C11         33.4710    61.5270   -10.6180 c6         1 UL6       0.124600
     19 O7          32.5960    60.5330   -10.0930 os         1 UL6      -0.447000
     20 C12         32.2280    59.5940   -11.1040 c6         1 UL6       0.117600
     21 C13         31.5690    60.3070   -12.2650 c6         1 UL6       0.117600
     22 O8          32.4430    61.3040   -12.8000 os         1 UL6      -0.478000
     23 H1          27.8000    63.2200   -13.6950 hc         1 UL6       0.060367
     24 H2          29.0200    61.9380   -13.5020 hc         1 UL6       0.060367
     25 H3          28.9600    63.2990   -12.3690 hc         1 UL6       0.060367
     26 H4          31.0150    62.2570   -14.4280 hn         1 UL6       0.317500
     27 H5          31.7320    64.9350   -15.3970 h1         1 UL6       0.116700
     28 H6          32.1680    62.3260   -16.9160 h1         1 UL6       0.042700
     29 H7          30.1220    63.3380   -17.2230 ho         1 UL6       0.453000
     30 H8          33.0620    65.1120   -17.7030 h1         1 UL6       0.062700
     31 H9          33.7760    64.0440   -19.4630 ho         1 UL6       0.507000
     32 H10         34.7530    62.7790   -16.6870 h1         1 UL6       0.062700
     33 H11         35.7760    64.4100   -18.3290 h1         1 UL6       0.032700
     34 H12         35.5090    65.6890   -17.1230 h1         1 UL6       0.032700
     35 H13         37.6150    64.7100   -16.9320 ho         1 UL6       0.504000
     36 H14         33.4850    62.5240   -14.7330 h2         1 UL6       0.042700
     37 H15         34.6620    62.7190   -12.8440 h1         1 UL6       0.065700
     38 H16         34.1620    63.9160   -11.6360 h1         1 UL6       0.065700
     39 H17         31.9410    62.7850   -11.4550 h1         1 UL6       0.062700
     40 H18         34.4130    61.0600   -10.9360 h1         1 UL6       0.059700
     41 H19         33.6760    62.2280    -9.8090 h1         1 UL6       0.059700
     42 H20         31.5390    58.8850   -10.6460 h1         1 UL6       0.059700
     43 H21         33.1200    59.0570   -11.4520 h1         1 UL6       0.059700
     44 H22         30.6360    60.7790   -11.9330 h1         1 UL6       0.055700
     45 H23         31.3490    59.6140   -13.0760 h1         1 UL6       0.055700
@<TRIPOS>BOND
     1     1     2 1   
     2     1    23 1   
     3     1    24 1   
     4     1    25 1   
     5     2     3 2   
     6     2     4 1   
     7     4     5 1   
     8     4    26 1   
     9     5     6 1   
    10     5    14 1   
    11     5    27 1   
    12     6     7 1   
    13     6     8 1   
    14     6    28 1   
    15     7    29 1   
    16     8     9 1   
    17     8    10 1   
    18     8    30 1   
    19     9    31 1   
    20    10    11 1   
    21    10    13 1   
    22    10    32 1   
    23    11    12 1   
    24    11    33 1   
    25    11    34 1   
    26    12    35 1   
    27    13    14 1   
    28    14    15 1   
    29    14    36 1   
    30    15    16 1   
    31    16    17 1   
    32    16    37 1   
    33    16    38 1   
    34    17    18 1   
    35    17    22 1   
    36    17    39 1   
    37    18    19 1   
    38    18    40 1   
    39    18    41 1   
    40    19    20 1   
    41    20    21 1   
    42    20    42 1   
    43    20    43 1   
    44    21    22 1   
    45    21    44 1   
    46    21    45 1   
@<TRIPOS>SUBSTRUCTURE
     1 UL6         1 TEMP              0 ****  ****    0 ROOT
