@<TRIPOS>MOLECULE
UL6
   45    46     1     0     0
SMALL
No Charge or Current Charge


@<TRIPOS>ATOM
      1 C1          28.6450    62.7850   -13.7430 c3         1 UL6      -0.176100
      2 C2          29.5370    63.5700   -14.6930 c          1 UL6       0.595100
      3 O1          29.1030    64.3700   -15.5070 o          1 UL6      -0.594100
      4 N1          30.8780    63.3010   -14.5900 ns         1 UL6      -0.501900
      5 C3          31.9760    63.9900   -15.3170 c6         1 UL6       0.036700
      6 C4          32.0530    63.5550   -16.8130 c6         1 UL6       0.167300
      7 O2          30.8690    63.9490   -17.5290 oh         1 UL6      -0.644000
      8 C5          33.3090    64.1590   -17.5140 c6         1 UL6       0.146300
      9 O3          33.3840    63.6850   -18.8730 oh         1 UL6      -0.711000
     10 C6          34.5880    63.8030   -16.6980 c6         1 UL6       0.147300
     11 C7          35.8810    64.4490   -17.2980 c3         1 UL6       0.168600
     12 O4          37.0680    64.1740   -16.5250 oh         1 UL6      -0.715000
     13 O5          34.4300    64.2680   -15.3340 os         1 UL6      -0.464000
     14 C8          33.3330    63.6560   -14.6350 c6         1 UL6       0.378300
     15 O6          33.3360    64.1450   -13.2830 os         1 UL6      -0.431000
     16 C9          33.9840    63.3130   -12.3020 c3         1 UL6       0.169600
     17 C10         32.9560    62.3020   -11.6980 c6         1 UL6       0.094300
     18 C11         33.6050    61.4180   -10.5920 c6         1 UL6       0.124600
     19 O7          32.6380    60.4540   -10.1070 os         1 UL6      -0.447000
     20 C12         32.1260    59.6000   -11.1600 c6         1 UL6       0.117600
     21 C13         31.4730    60.4740   -12.2650 c6         1 UL6       0.117600
     22 O8          32.4370    61.4420   -12.7510 os         1 UL6      -0.478000
     23 H1          27.5830    63.0250   -13.8660 hc         1 UL6       0.060367
     24 H2          28.8360    61.7140   -13.8780 hc         1 UL6       0.060367
     25 H3          28.9830    62.9540   -12.7140 hc         1 UL6       0.060367
     26 H4          31.1460    62.6230   -13.8800 hn         1 UL6       0.317500
     27 H5          31.8230    65.0780   -15.2560 h1         1 UL6       0.116700
     28 H6          32.1450    62.4580   -16.8350 h1         1 UL6       0.042700
     29 H7          30.1730    64.1140   -16.8400 ho         1 UL6       0.453000
     30 H8          33.2040    65.2550   -17.5110 h1         1 UL6       0.062700
     31 H9          32.4510    63.6950   -19.1960 ho         1 UL6       0.507000
     32 H10         34.7240    62.7110   -16.6890 h1         1 UL6       0.062700
     33 H11         36.0110    64.0750   -18.3220 h1         1 UL6       0.032700
     34 H12         35.7200    65.5340   -17.3670 h1         1 UL6       0.032700
     35 H13         37.8060    64.6780   -16.9430 ho         1 UL6       0.504000
     36 H14         33.4710    62.5640   -14.6410 h2         1 UL6       0.042700
     37 H15         34.8370    62.7700   -12.7320 h1         1 UL6       0.065700
     38 H16         34.3650    63.9350   -11.4820 h1         1 UL6       0.065700
     39 H17         32.1250    62.8750   -11.2610 h1         1 UL6       0.062700
     40 H18         34.4820    60.8880   -10.9920 h1         1 UL6       0.059700
     41 H19         33.9370    62.0460    -9.7520 h1         1 UL6       0.059700
     42 H20         31.3830    58.9100   -10.7370 h1         1 UL6       0.059700
     43 H21         32.9480    59.0040   -11.5850 h1         1 UL6       0.059700
     44 H22         30.5950    60.9990   -11.8620 h1         1 UL6       0.055700
     45 H23         31.1430    59.8410   -13.1010 h1         1 UL6       0.055700
@<TRIPOS>BOND
     1     1     2 1   
     2     1    23 1   
     3     1    24 1   
     4     1    25 1   
     5     2     3 2   
     6     2     4 1   
     7     4     5 1   
     8     4    26 1   
     9     5     6 1   
    10     5    14 1   
    11     5    27 1   
    12     6     7 1   
    13     6     8 1   
    14     6    28 1   
    15     7    29 1   
    16     8     9 1   
    17     8    10 1   
    18     8    30 1   
    19     9    31 1   
    20    10    11 1   
    21    10    13 1   
    22    10    32 1   
    23    11    12 1   
    24    11    33 1   
    25    11    34 1   
    26    12    35 1   
    27    13    14 1   
    28    14    15 1   
    29    14    36 1   
    30    15    16 1   
    31    16    17 1   
    32    16    37 1   
    33    16    38 1   
    34    17    18 1   
    35    17    22 1   
    36    17    39 1   
    37    18    19 1   
    38    18    40 1   
    39    18    41 1   
    40    19    20 1   
    41    20    21 1   
    42    20    42 1   
    43    20    43 1   
    44    21    22 1   
    45    21    44 1   
    46    21    45 1   
@<TRIPOS>SUBSTRUCTURE
     1 UL6         1 TEMP              0 ****  ****    0 ROOT
