@<TRIPOS>MOLECULE
UL7
   47    49     1     0     0
SMALL
No Charge or Current Charge


@<TRIPOS>ATOM
      1 N           -4.4330    -0.3230    -0.4310 n3         1 UL7      -0.714600
      2 C           -5.6300    -0.9080     0.2580 c6         1 UL7       0.168300
      3 C01          3.3520    -1.2820    -1.1700 ca         1 UL7       0.076000
      4 C1           2.1130    -1.0060     0.9190 ca         1 UL7      -0.108300
      5 N1          -0.3920    -1.2280     1.0230 n3         1 UL7      -0.730600
      6 C02          4.3510    -0.4150    -0.7030 ca         1 UL7      -0.038000
      7 C2           0.8870    -1.3530     1.7660 c3         1 UL7       0.224100
      8 C03         -1.5370    -1.7820     1.7840 c6         1 UL7       0.168800
      9 C3           2.2420    -1.5780    -0.3640 ca         1 UL7      -0.039000
     10 C04         -4.7630     1.0520    -0.9340 c6         1 UL7       0.168300
     11 C4           4.2390     0.1560     0.5770 ca         1 UL7      -0.115900
     12 C05         -5.9870     1.0580    -1.8810 c6         1 UL7      -0.091900
     13 C06         -7.2340     0.4410    -1.2170 c6         1 UL7       0.170300
     14 O           -7.7330     1.2980    -0.1820 oh         1 UL7      -0.663000
     15 C07         -6.8790    -0.9520    -0.6560 c6         1 UL7      -0.091900
     16 C7           3.1250    -0.1370     1.3900 ca         1 UL7       0.171100
     17 C10         -3.2010    -0.3330     0.4470 c6         1 UL7       0.187500
     18 C15         -1.9460     0.2490    -0.2760 c6         1 UL7      -0.076900
     19 C16         -0.6750     0.1660     0.5970 c6         1 UL7       0.168800
     20 Cl           3.4910    -1.9990    -2.7710 cl         1 UL7      -0.196000
     21 Br           5.6250     1.3350     1.1900 br         1 UL7      -0.095100
     22 C8          -2.8380    -1.7660     0.9510 c6         1 UL7      -0.076900
     23 HC1         -5.4430    -1.9430     0.5700 h1         1 UL7       0.034950
     24 HC2         -5.8650    -0.3330     1.1670 h1         1 UL7       0.034950
     25 H041        -4.9540     1.7320    -0.0900 h1         1 UL7       0.034950
     26 H042        -3.9300     1.4760    -1.5100 h1         1 UL7       0.034950
     27 H10         -3.3910     0.2910     1.3340 h1         1 UL7       0.018700
     28 H071        -6.6860    -1.6390    -1.4910 hc         1 UL7       0.051950
     29 H072        -7.7310    -1.3700    -0.1050 hc         1 UL7       0.051950
     30 H02          5.2100    -0.1890    -1.3310 ha         1 UL7       0.143000
     31 H3           1.4730    -2.2490    -0.7390 ha         1 UL7       0.158000
     32 H21C         1.0120    -2.3870     2.1140 h1         1 UL7       0.050700
     33 H22C         0.8510    -0.7230     2.6660 h1         1 UL7       0.050700
     34 H031        -1.3270    -2.8200     2.0830 h1         1 UL7       0.032200
     35 H032        -1.6950    -1.2060     2.7080 h1         1 UL7       0.032200
     36 H161        -0.8000     0.8150     1.4770 h1         1 UL7       0.032200
     37 H162         0.1670     0.5720     0.0170 h1         1 UL7       0.032200
     38 H1           3.8360     0.9860     2.7600 ho         1 UL7       0.482000
     39 H81C        -2.7350    -2.4480     0.0960 hc         1 UL7       0.053450
     40 H82C        -3.6300    -2.1720     1.5900 hc         1 UL7       0.053450
     41 H051        -6.2020     2.0850    -2.2070 hc         1 UL7       0.051950
     42 H052        -5.7410     0.4920    -2.7890 hc         1 UL7       0.051950
     43 H06         -8.0100     0.3180    -1.9880 h1         1 UL7       0.032700
     44 H           -8.5860     0.9130     0.1170 ho         1 UL7       0.439000
     45 H151        -1.7770    -0.2850    -1.2210 hc         1 UL7       0.053450
     46 H152        -2.0900     1.3060    -0.5280 hc         1 UL7       0.053450
     47 O1           3.0410     0.4240     2.6320 oh         1 UL7      -0.530100
@<TRIPOS>BOND
     1     1     2 1   
     2     1    10 1   
     3     1    17 1   
     4     2    15 1   
     5     2    23 1   
     6     2    24 1   
     7     3     6 ar  
     8     3     9 ar  
     9     3    20 1   
    10     4     7 1   
    11     4     9 ar  
    12     4    16 ar  
    13     5     7 1   
    14     5     8 1   
    15     5    19 1   
    16     6    11 ar  
    17     6    30 1   
    18     7    32 1   
    19     7    33 1   
    20     8    22 1   
    21     8    34 1   
    22     8    35 1   
    23     9    31 1   
    24    10    12 1   
    25    10    25 1   
    26    10    26 1   
    27    11    16 ar  
    28    11    21 1   
    29    12    13 1   
    30    12    41 1   
    31    12    42 1   
    32    13    14 1   
    33    13    15 1   
    34    13    43 1   
    35    14    44 1   
    36    15    28 1   
    37    15    29 1   
    38    16    47 1   
    39    17    18 1   
    40    17    22 1   
    41    17    27 1   
    42    18    19 1   
    43    18    45 1   
    44    18    46 1   
    45    19    36 1   
    46    19    37 1   
    47    22    39 1   
    48    22    40 1   
    49    38    47 1   
@<TRIPOS>SUBSTRUCTURE
     1 UL7         1 TEMP              0 ****  ****    0 ROOT
