@<TRIPOS>MOLECULE
UL7
   47    49     1     0     0
SMALL
abcg2


@<TRIPOS>ATOM
      1 N           -4.3860    -0.3160    -0.4400 n3         1 UL7      -0.714600
      2 C           -5.5040    -1.0070     0.1920 c6         1 UL7       0.168300
      3 C01          3.0340    -1.0630    -1.2610 ca         1 UL7       0.076000
      4 C1           2.0240    -0.7980     0.9060 ca         1 UL7      -0.108300
      5 N1          -0.4280    -0.8570     1.0810 n3         1 UL7      -0.730600
      6 C02          4.2790    -0.7400    -0.7580 ca         1 UL7      -0.038000
      7 C2           0.8160    -0.8590     1.8130 c3         1 UL7       0.224100
      8 C03         -1.5130    -1.4680     1.8200 c6         1 UL7       0.168800
      9 C3           1.9170    -1.0980    -0.4420 ca         1 UL7      -0.039000
     10 C04         -4.8200     0.9920    -0.9160 c6         1 UL7       0.168300
     11 C4           4.3870    -0.4530     0.5960 ca         1 UL7      -0.115900
     12 C05         -5.9810     0.8920    -1.8960 c6         1 UL7      -0.091900
     13 C06         -7.1710     0.1610    -1.3040 c6         1 UL7       0.170300
     14 O           -7.7270     0.9800    -0.2920 oh         1 UL7      -0.663000
     15 C07         -6.6820    -1.1720    -0.7560 c6         1 UL7      -0.091900
     16 C7           3.2790    -0.4780     1.4430 ca         1 UL7       0.171100
     17 C10         -3.2280    -0.2100     0.4530 c6         1 UL7       0.187500
     18 C15         -2.0340     0.4480    -0.2410 c6         1 UL7      -0.076900
     19 C16         -0.8020     0.4740     0.6480 c6         1 UL7       0.168800
     20 CL           2.8700    -1.4320    -2.9470 cl         1 UL7      -0.196000
     21 BR           6.0880    -0.0230     1.2950 br         1 UL7      -0.095100
     22 C8          -2.7710    -1.5750     0.9730 c6         1 UL7      -0.076900
     23 HC1         -5.1910    -2.0030     0.5000 h1         1 UL7       0.034950
     24 HC2         -5.8290    -0.4860     1.1090 h1         1 UL7       0.034950
     25 H041        -5.0960     1.6510    -0.0740 h1         1 UL7       0.034950
     26 H042        -4.0000     1.4840    -1.4350 h1         1 UL7       0.034950
     27 H10         -3.4910     0.4110     1.3320 h1         1 UL7       0.018700
     28 H071        -6.3820    -1.8050    -1.5960 hc         1 UL7       0.051950
     29 H072        -7.4890    -1.7010    -0.2400 hc         1 UL7       0.051950
     30 H02          5.1470    -0.7150    -1.4010 ha         1 UL7       0.143000
     31 H3           0.9450    -1.3590    -0.8400 ha         1 UL7       0.158000
     32 H21C         0.8780    -1.7830     2.3970 h1         1 UL7       0.050700
     33 H22C         0.8590    -0.0400     2.5480 h1         1 UL7       0.050700
     34 H031        -1.2070    -2.4690     2.1330 h1         1 UL7       0.032200
     35 H032        -1.7460    -0.9070     2.7430 h1         1 UL7       0.032200
     36 H161        -0.9890     1.1330     1.5150 h1         1 UL7       0.032200
     37 H162         0.0260     0.9230     0.0950 h1         1 UL7       0.032200
     38 H1           4.2090     0.0300     3.0550 ho         1 UL7       0.482000
     39 H81C        -2.5870    -2.2420     0.1240 hc         1 UL7       0.053450
     40 H82C        -3.5340    -2.0460     1.5930 hc         1 UL7       0.053450
     41 H051        -6.2670     1.8950    -2.2210 hc         1 UL7       0.051950
     42 H052        -5.6550     0.3510    -2.7880 hc         1 UL7       0.051950
     43 H06         -7.9140    -0.0220    -2.0930 h1         1 UL7       0.032700
     44 H           -8.4210     0.4820     0.1500 ho         1 UL7       0.439000
     45 H151        -1.8110    -0.0950    -1.1650 hc         1 UL7       0.053450
     46 H152        -2.2520     1.4800    -0.5180 hc         1 UL7       0.053450
     47 O1           3.3270    -0.2260     2.7590 oh         1 UL7      -0.530100
@<TRIPOS>BOND
     1     1     2 1   
     2     1    10 1   
     3     1    17 1   
     4     2    15 1   
     5     2    23 1   
     6     2    24 1   
     7     3     6 ar  
     8     3     9 ar  
     9     3    20 1   
    10     4     7 1   
    11     4     9 ar  
    12     4    16 ar  
    13     5     7 1   
    14     5     8 1   
    15     5    19 1   
    16     6    11 ar  
    17     6    30 1   
    18     7    32 1   
    19     7    33 1   
    20     8    22 1   
    21     8    34 1   
    22     8    35 1   
    23     9    31 1   
    24    10    12 1   
    25    10    25 1   
    26    10    26 1   
    27    11    16 ar  
    28    11    21 1   
    29    12    13 1   
    30    12    41 1   
    31    12    42 1   
    32    13    14 1   
    33    13    15 1   
    34    13    43 1   
    35    14    44 1   
    36    15    28 1   
    37    15    29 1   
    38    16    47 1   
    39    17    18 1   
    40    17    22 1   
    41    17    27 1   
    42    18    19 1   
    43    18    45 1   
    44    18    46 1   
    45    19    36 1   
    46    19    37 1   
    47    22    39 1   
    48    22    40 1   
    49    38    47 1   
@<TRIPOS>SUBSTRUCTURE
     1 UL7         1 TEMP              0 ****  ****    0 ROOT
