@<TRIPOS>MOLECULE
UL8
   48    50     1     0     0
SMALL
abcg2


@<TRIPOS>ATOM
      1 C10         46.3890    17.1370    10.2490 c          1 UL8       0.622700
      2 C13         44.3620    18.5250    10.6110 ca         1 UL8      -0.016000
      3 C15         43.0570    18.8870    10.3320 ca         1 UL8      -0.203000
      4 C17         42.3430    18.2320     9.3310 ca         1 UL8       0.176100
      5 C21         39.0130    19.6570     9.0260 c3         1 UL8      -0.088100
      6 C26         39.9540    19.5360    12.2880 ca         1 UL8      -0.092500
      7 C28         39.6430    18.9730    13.5180 ca         1 UL8      -0.110000
      8 C01         48.4900    14.4160     9.0650 c3         1 UL8      -0.111100
      9 C05         48.0930    15.3500    10.1940 c3         1 UL8       0.100000
     10 N08         46.7560    15.8700     9.9950 ns         1 UL8      -0.505900
     11 O11         47.1480    17.9750    10.7200 o          1 UL8      -0.612100
     12 C12         44.9740    17.4850     9.9190 ca         1 UL8      -0.191600
     13 O18         41.0880    18.5460     8.9800 os         1 UL8      -0.358100
     14 C19         40.2900    19.3930     9.8030 c3         1 UL8       0.225600
     15 C25         40.0050    18.7520    11.1410 ca         1 UL8      -0.128300
     16 C30         39.3870    17.6110    13.6130 ca         1 UL8      -0.100000
     17 C32         39.4400    16.8220    12.4710 ca         1 UL8      -0.110000
     18 C34         39.7430    17.3880    11.2410 ca         1 UL8      -0.092500
     19 C36         42.9450    17.1880     8.6090 ca         1 UL8      -0.151500
     20 C37         44.2560    16.8390     8.9210 ca         1 UL8      -0.031000
     21 C39         42.2470    16.4630     7.5460 cc         1 UL8       0.270500
     22 C40         40.9580    16.5320     7.0610 cd         1 UL8      -0.185000
     23 N42         40.9180    15.6010     6.0950 na         1 UL8       0.119800
     24 C43         39.8010    15.2440     5.2490 c3         1 UL8       0.062900
     25 N47         42.0830    14.9930     5.9730 nd         1 UL8      -0.202800
     26 N48         42.8860    15.5000     6.8370 nc         1 UL8      -0.371000
     27 H1          44.9010    19.0530    11.3850 ha         1 UL8       0.134000
     28 H2          42.6120    19.6910    10.9000 ha         1 UL8       0.123000
     29 H3          38.3680    20.3240     9.5980 hc         1 UL8       0.049367
     30 H4          39.2300    20.1340     8.0710 hc         1 UL8       0.049367
     31 H5          38.4650    18.7320     8.8420 hc         1 UL8       0.049367
     32 H6          40.1650    20.5980    12.2200 ha         1 UL8       0.115500
     33 H7          39.6090    19.5950    14.4030 ha         1 UL8       0.115000
     34 H8          49.4860    14.0110     9.2450 hc         1 UL8       0.041033
     35 H9          47.8020    13.5730     8.9830 hc         1 UL8       0.041033
     36 H10         48.5030    14.9390     8.1080 hc         1 UL8       0.041033
     37 H11         48.1540    14.8270    11.1530 h1         1 UL8       0.052200
     38 H12         48.7810    16.1920    10.2480 h1         1 UL8       0.052200
     39 H13         46.0450    15.1990     9.7510 hn         1 UL8       0.315500
     40 H14         40.8030    20.3490     9.9590 h1         1 UL8       0.052700
     41 H15         39.1500    17.1670    14.5710 ha         1 UL8       0.115000
     42 H16         39.2430    15.7590    12.5380 ha         1 UL8       0.115000
     43 H17         39.7780    16.7580    10.3600 ha         1 UL8       0.115500
     44 H18         44.7130    16.0490     8.3380 ha         1 UL8       0.138000
     45 H19         40.1020    17.1320     7.3080 h4         1 UL8       0.176000
     46 H20         40.1270    14.4680     4.5640 h1         1 UL8       0.063367
     47 H21         38.9770    14.8680     5.8520 h1         1 UL8       0.063367
     48 H22         39.4680    16.1100     4.6820 h1         1 UL8       0.063367
@<TRIPOS>BOND
     1     1    10 1   
     2     1    11 2   
     3     1    12 1   
     4     2     3 ar  
     5     2    12 ar  
     6     2    27 1   
     7     3     4 ar  
     8     3    28 1   
     9     4    13 1   
    10     4    19 ar  
    11     5    14 1   
    12     5    29 1   
    13     5    30 1   
    14     5    31 1   
    15     6     7 ar  
    16     6    15 ar  
    17     6    32 1   
    18     7    16 ar  
    19     7    33 1   
    20     8     9 1   
    21     8    34 1   
    22     8    35 1   
    23     8    36 1   
    24     9    10 1   
    25     9    37 1   
    26     9    38 1   
    27    10    39 1   
    28    12    20 ar  
    29    13    14 1   
    30    14    15 1   
    31    14    40 1   
    32    15    18 ar  
    33    16    17 ar  
    34    16    41 1   
    35    17    18 ar  
    36    17    42 1   
    37    18    43 1   
    38    19    20 ar  
    39    19    21 1   
    40    20    44 1   
    41    21    22 2   
    42    21    26 1   
    43    22    23 1   
    44    22    45 1   
    45    23    24 1   
    46    23    25 1   
    47    24    46 1   
    48    24    47 1   
    49    24    48 1   
    50    25    26 2   
@<TRIPOS>SUBSTRUCTURE
     1 UL8         1 TEMP              0 ****  ****    0 ROOT
