@<TRIPOS>MOLECULE
UL8
   48    50     1     0     0
SMALL
No Charge or Current Charge


@<TRIPOS>ATOM
      1 C10         46.3840    16.9350    10.4760 c          1 UL8       0.622700
      2 C13         44.3120    18.3300    10.8250 ca         1 UL8      -0.016000
      3 C15         43.0160    18.7360    10.4770 ca         1 UL8      -0.203000
      4 C17         42.3430    18.1460     9.3870 ca         1 UL8       0.176100
      5 C21         39.0580    19.8320     8.8840 c3         1 UL8      -0.088100
      6 C26         39.9860    19.5950    12.2870 ca         1 UL8      -0.092500
      7 C28         39.6070    19.0260    13.5150 ca         1 UL8      -0.110000
      8 C01         48.7290    14.3780     8.9260 c3         1 UL8      -0.111100
      9 C05         48.3440    15.4550     9.9520 c3         1 UL8       0.100000
     10 N08         46.9940    15.9640     9.7140 ns         1 UL8      -0.505900
     11 O11         46.9620    17.4430    11.4280 o          1 UL8      -0.612100
     12 C12         44.9780    17.3360    10.0800 ca         1 UL8      -0.191600
     13 O18         41.0820    18.5650     9.0000 os         1 UL8      -0.358100
     14 C19         40.2780    19.4900     9.7580 c3         1 UL8       0.225600
     15 C25         39.8620    18.8600    11.0910 ca         1 UL8      -0.128300
     16 C30         39.0980    17.7180    13.5580 ca         1 UL8      -0.100000
     17 C32         38.9650    16.9800    12.3700 ca         1 UL8      -0.110000
     18 C34         39.3440    17.5480    11.1420 ca         1 UL8      -0.092500
     19 C36         42.9870    17.1300     8.6410 ca         1 UL8      -0.151500
     20 C37         44.3050    16.7530     8.9810 ca         1 UL8      -0.031000
     21 C39         42.3640    16.5150     7.4600 cc         1 UL8       0.270500
     22 C40         41.0440    16.1990     7.3980 cd         1 UL8      -0.185000
     23 N42         40.9370    15.5970     6.1640 na         1 UL8       0.119800
     24 C43         39.7290    15.0520     5.5340 c3         1 UL8       0.062900
     25 N47         42.1640    15.5390     5.5440 nd         1 UL8      -0.202800
     26 N48         43.0370    16.0900     6.3520 nc         1 UL8      -0.371000
     27 H1          44.8030    18.8040    11.6730 ha         1 UL8       0.134000
     28 H2          42.5560    19.5230    11.0650 ha         1 UL8       0.123000
     29 H3          38.4000    20.5340     9.4080 hc         1 UL8       0.049367
     30 H4          39.3780    20.2980     7.9450 hc         1 UL8       0.049367
     31 H5          38.4810    18.9300     8.6460 hc         1 UL8       0.049367
     32 H6          40.3780    20.6100    12.2680 ha         1 UL8       0.115500
     33 H7          39.7080    19.6000    14.4340 ha         1 UL8       0.115000
     34 H8          49.7440    14.0120     9.1220 hc         1 UL8       0.041033
     35 H9          48.0400    13.5270     8.9810 hc         1 UL8       0.041033
     36 H10         48.7020    14.7850     7.9080 hc         1 UL8       0.041033
     37 H11         48.3940    15.0320    10.9640 h1         1 UL8       0.052200
     38 H12         49.0560    16.2900     9.8910 h1         1 UL8       0.052200
     39 H13         46.4660    15.5830     8.9410 hn         1 UL8       0.315500
     40 H14         40.8340    20.4200     9.9390 h1         1 UL8       0.052700
     41 H15         38.8040    17.2780    14.5090 ha         1 UL8       0.115000
     42 H16         38.5690    15.9670    12.4010 ha         1 UL8       0.115000
     43 H17         39.2350    16.9660    10.2300 ha         1 UL8       0.115500
     44 H18         44.7910    15.9880     8.3810 ha         1 UL8       0.138000
     45 H19         40.2240    16.3350     8.0880 h4         1 UL8       0.176000
     46 H20         39.8150    13.9620     5.4610 h1         1 UL8       0.063367
     47 H21         38.8500    15.3070     6.1380 h1         1 UL8       0.063367
     48 H22         39.6140    15.4780     4.5300 h1         1 UL8       0.063367
@<TRIPOS>BOND
     1     1    10 1   
     2     1    11 2   
     3     1    12 1   
     4     2     3 ar  
     5     2    12 ar  
     6     2    27 1   
     7     3     4 ar  
     8     3    28 1   
     9     4    13 1   
    10     4    19 ar  
    11     5    14 1   
    12     5    29 1   
    13     5    30 1   
    14     5    31 1   
    15     6     7 ar  
    16     6    15 ar  
    17     6    32 1   
    18     7    16 ar  
    19     7    33 1   
    20     8     9 1   
    21     8    34 1   
    22     8    35 1   
    23     8    36 1   
    24     9    10 1   
    25     9    37 1   
    26     9    38 1   
    27    10    39 1   
    28    12    20 ar  
    29    13    14 1   
    30    14    15 1   
    31    14    40 1   
    32    15    18 ar  
    33    16    17 ar  
    34    16    41 1   
    35    17    18 ar  
    36    17    42 1   
    37    18    43 1   
    38    19    20 ar  
    39    19    21 1   
    40    20    44 1   
    41    21    22 2   
    42    21    26 1   
    43    22    23 1   
    44    22    45 1   
    45    23    24 1   
    46    23    25 1   
    47    24    46 1   
    48    24    47 1   
    49    24    48 1   
    50    25    26 2   
@<TRIPOS>SUBSTRUCTURE
     1 UL8         1 TEMP              0 ****  ****    0 ROOT
