@<TRIPOS>MOLECULE
UL9
   11    10     1     0     0
SMALL
No Charge or Current Charge


@<TRIPOS>ATOM
      1 C01        160.6030   142.7060   170.2980 c2         1 UL9      -0.271000
      2 C02        161.0780   143.9080   169.9210 c2         1 UL9      -0.270200
      3 C03        162.4650   144.1840   169.3730 c3         1 UL9       0.312000
      4 C05        162.0190   143.7610   166.8580 c1         1 UL9       0.422400
      5 N04        162.4560   143.7570   167.9720 n2         1 UL9      -0.633600
      6 S06        161.3450   143.8240   165.4160 s          1 UL9      -0.228000
      7 H012       161.2090   141.8010   170.2280 ha         1 UL9       0.171500
      8 H011       159.5900   142.5860   170.6850 ha         1 UL9       0.171500
      9 H021       160.4540   144.8000   169.9980 ha         1 UL9       0.187000
     10 H031       163.2160   143.6300   169.9510 h1         1 UL9       0.069200
     11 H032       162.6980   145.2550   169.4590 h1         1 UL9       0.069200
@<TRIPOS>BOND
     1     1     2 2   
     2     1     7 1   
     3     1     8 1   
     4     2     3 1   
     5     2     9 1   
     6     3     5 1   
     7     3    10 1   
     8     3    11 1   
     9     4     5 2   
    10     4     6 2   
@<TRIPOS>SUBSTRUCTURE
     1 UL9         1 TEMP              0 ****  ****    0 ROOT
