@<TRIPOS>MOLECULE
UL9
   11    10     1     0     0
SMALL
abcg2


@<TRIPOS>ATOM
      1 C01        160.6550   142.7840   170.6150 c2         1 UL9      -0.271000
      2 C02        160.9760   143.7800   169.8010 c2         1 UL9      -0.270200
      3 C03        162.3700   144.0030   169.2850 c3         1 UL9       0.312000
      4 C05        162.0390   144.0720   166.7380 c1         1 UL9       0.422400
      5 N04        162.4020   144.0090   167.8510 n2         1 UL9      -0.633600
      6 S06        161.6180   144.1460   165.1970 s          1 UL9      -0.228000
      7 H012       161.3920   142.0570   170.9390 ha         1 UL9       0.171500
      8 H011       159.6450   142.6660   170.9900 ha         1 UL9       0.171500
      9 H021       160.2320   144.5000   169.4770 ha         1 UL9       0.187000
     10 H031       163.0470   143.2260   169.6410 h1         1 UL9       0.069200
     11 H032       162.7590   144.9680   169.6230 h1         1 UL9       0.069200
@<TRIPOS>BOND
     1     1     2 2   
     2     1     7 1   
     3     1     8 1   
     4     2     3 1   
     5     2     9 1   
     6     3     5 1   
     7     3    10 1   
     8     3    11 1   
     9     4     5 2   
    10     4     6 2   
@<TRIPOS>SUBSTRUCTURE
     1 UL9         1 TEMP              0 ****  ****    0 ROOT
