@<TRIPOS>MOLECULE
ULB
   35    37     1     0     0
SMALL
bcc


@<TRIPOS>ATOM
      1 C20         42.0010    18.2160     8.7310 ca         1 ULB       0.152100
      2 C22         39.9860    19.4140     9.2450 c3         1 ULB       0.191700
      3 C26         39.8650    19.5630    11.7510 ca         1 ULB      -0.108500
      4 C28         39.5790    19.0160    12.9960 ca         1 ULB      -0.127000
      5 C05         40.2840    15.4590     5.8250 cc         1 ULB       0.379800
      6 N06         40.5200    16.4320     6.7330 na         1 ULB      -0.436700
      7 C07         41.8230    16.3060     7.0910 cc         1 ULB       0.453000
      8 N08         42.3410    15.3030     6.4280 nd         1 ULB      -0.372000
      9 N09         41.3790    14.7750     5.6370 nd         1 ULB      -0.361000
     10 C11         42.5580    17.1150     8.0620 ca         1 ULB      -0.159500
     11 C12         43.8820    16.7680     8.3390 ca         1 ULB      -0.057000
     12 C14         44.6370    17.4730     9.2570 ca         1 ULB      -0.164000
     13 C16         44.0680    18.5500     9.9210 ca         1 ULB      -0.081000
     14 C18         42.7580    18.9220     9.6620 ca         1 ULB      -0.203000
     15 O21         40.7340    18.5480     8.4030 os         1 ULB      -0.351900
     16 C25         39.7080    18.8080    10.5950 ca         1 ULB      -0.135300
     17 C30         39.1410    17.7030    13.0940 ca         1 ULB      -0.115000
     18 C32         38.9860    16.9420    11.9410 ca         1 ULB      -0.127000
     19 C34         39.2650    17.4910    10.6990 ca         1 ULB      -0.108500
     20 H1          40.4740    20.3890     9.3450 h1         1 ULB       0.061700
     21 H2          39.0550    19.5800     8.7030 h1         1 ULB       0.061700
     22 H3          40.2190    20.5850    11.6800 ha         1 ULB       0.131000
     23 H4          39.7080    19.6150    13.8890 ha         1 ULB       0.134500
     24 H5          39.0450    14.3880     4.4900 hc         1 ULB       0.057033
     25 H6          38.1940    15.0340     5.8960 hc         1 ULB       0.057033
     26 H7          38.6710    16.1110     4.5880 hc         1 ULB       0.057033
     27 H8          39.8640    17.1170     7.0750 hn         1 ULB       0.320700
     28 H9          44.3150    15.9220     7.8230 ha         1 ULB       0.163000
     29 H10         45.6600    17.1820     9.4560 ha         1 ULB       0.140000
     30 H11         44.6420    19.1120    10.6460 ha         1 ULB       0.133000
     31 H12         42.3440    19.7690    10.1900 ha         1 ULB       0.138000
     32 H13         38.9240    17.2730    14.0630 ha         1 ULB       0.134000
     33 H14         38.6450    15.9170    12.0110 ha         1 ULB       0.134500
     34 H15         39.1370    16.8880     9.8080 ha         1 ULB       0.131000
     35 C01         38.9760    15.2370     5.1650 c3         1 ULB      -0.122400
@<TRIPOS>BOND
     1     1    10 ar  
     2     1    14 ar  
     3     1    15 1   
     4     2    15 1   
     5     2    16 1   
     6     2    20 1   
     7     2    21 1   
     8     3     4 ar  
     9     3    16 ar  
    10     3    22 1   
    11     4    17 ar  
    12     4    23 1   
    13     5     6 1   
    14     5     9 2   
    15     5    35 1   
    16     6     7 1   
    17     6    27 1   
    18     7     8 2   
    19     7    10 1   
    20     8     9 1   
    21    10    11 ar  
    22    11    12 ar  
    23    11    28 1   
    24    12    13 ar  
    25    12    29 1   
    26    13    14 ar  
    27    13    30 1   
    28    14    31 1   
    29    16    19 ar  
    30    17    18 ar  
    31    17    32 1   
    32    18    19 ar  
    33    18    33 1   
    34    19    34 1   
    35    24    35 1   
    36    25    35 1   
    37    26    35 1   
@<TRIPOS>SUBSTRUCTURE
     1 ULB         1 TEMP              0 ****  ****    0 ROOT
