@<TRIPOS>MOLECULE
ULB
   35    37     1     0     0
SMALL
No Charge or Current Charge


@<TRIPOS>ATOM
      1 C20         41.9830    18.1830     8.7130 ca         1 ULB       0.152100
      2 C22         39.8850    19.4270     9.2220 c3         1 ULB       0.214900
      3 C26         39.8980    19.5750    11.7670 ca         1 ULB      -0.090500
      4 C28         39.6800    19.0150    13.0380 ca         1 ULB      -0.109000
      5 C05         40.2910    15.4330     5.7750 cc         1 ULB       0.379800
      6 N06         40.5720    16.4230     6.6670 na         1 ULB      -0.487000
      7 C07         41.8560    16.2330     7.0880 cc         1 ULB       0.453000
      8 N08         42.3360    15.1630     6.4690 nd         1 ULB      -0.372000
      9 N09         41.3540    14.6620     5.6450 nd         1 ULB      -0.361000
     10 C11         42.5800    17.0690     8.0620 ca         1 ULB      -0.159500
     11 C12         43.9210    16.7400     8.3740 ca         1 ULB      -0.039000
     12 C14         44.6560    17.4960     9.3000 ca         1 ULB      -0.146000
     13 C16         44.0660    18.5970     9.9320 ca         1 ULB      -0.063000
     14 C18         42.7390    18.9400     9.6390 ca         1 ULB      -0.185000
     15 O21         40.6730    18.5220     8.4190 os         1 ULB      -0.375100
     16 C25         39.6480    18.8190    10.6040 ca         1 ULB      -0.135300
     17 C30         39.2080    17.6970    13.1560 ca         1 ULB      -0.097000
     18 C32         38.9520    16.9390    12.0010 ca         1 ULB      -0.109000
     19 C34         39.1690    17.4980    10.7300 ca         1 ULB      -0.090500
     20 H1          40.3690    20.4080     9.3030 h1         1 ULB       0.061700
     21 H2          38.9100    19.5910     8.7440 h1         1 ULB       0.061700
     22 H3          40.2620    20.5970    11.6890 ha         1 ULB       0.113000
     23 H4          39.8770    19.6030    13.9320 ha         1 ULB       0.116500
     24 H5          38.9960    14.3860     4.4120 hc         1 ULB       0.057033
     25 H6          38.1650    15.1390     5.7870 hc         1 ULB       0.057033
     26 H7          38.7600    16.1440     4.4490 hc         1 ULB       0.057033
     27 H8          39.9620    17.1660     6.9720 hn         1 ULB       0.371000
     28 H9          44.4070    15.8900     7.8970 ha         1 ULB       0.145000
     29 H10         45.6860    17.2270     9.5250 ha         1 ULB       0.122000
     30 H11         44.6380    19.1850    10.6470 ha         1 ULB       0.115000
     31 H12         42.3150    19.8040    10.1400 ha         1 ULB       0.120000
     32 H13         39.0400    17.2640    14.1400 ha         1 ULB       0.116000
     33 H14         38.5850    15.9190    12.0910 ha         1 ULB       0.116500
     34 H15         38.9690    16.9030     9.8420 ha         1 ULB       0.113000
     35 C01         38.9810    15.2660     5.0660 c3         1 ULB      -0.122400
@<TRIPOS>BOND
     1     1    10 ar  
     2     1    14 ar  
     3     1    15 1   
     4     2    15 1   
     5     2    16 1   
     6     2    20 1   
     7     2    21 1   
     8     3     4 ar  
     9     3    16 ar  
    10     3    22 1   
    11     4    17 ar  
    12     4    23 1   
    13     5     6 1   
    14     5     9 2   
    15     5    35 1   
    16     6     7 1   
    17     6    27 1   
    18     7     8 2   
    19     7    10 1   
    20     8     9 1   
    21    10    11 ar  
    22    11    12 ar  
    23    11    28 1   
    24    12    13 ar  
    25    12    29 1   
    26    13    14 ar  
    27    13    30 1   
    28    14    31 1   
    29    16    19 ar  
    30    17    18 ar  
    31    17    32 1   
    32    18    19 ar  
    33    18    33 1   
    34    19    34 1   
    35    24    35 1   
    36    25    35 1   
    37    26    35 1   
@<TRIPOS>SUBSTRUCTURE
     1 ULB         1 TEMP              0 ****  ****    0 ROOT
