@<TRIPOS>MOLECULE
ULC
   43    45     1     0     0
SMALL
abcg2


@<TRIPOS>ATOM
      1 C7           9.2970   -11.4020    -2.2550 ca         1 ULC      -0.032000
      2 C15          8.6330   -16.8730    -3.4940 ca         1 ULC      -0.097000
      3 C17          9.9950   -18.8580    -3.4010 ca         1 ULC      -0.061300
      4 C20          8.8850   -19.8420    -5.8620 c6         1 ULC      -0.073400
      5 C21          8.6170   -18.3930    -5.4810 c6         1 ULC      -0.030100
      6 C22         10.4220   -18.4680    -2.1320 ca         1 ULC      -0.103000
      7 C1           6.2080   -13.7140     0.3560 c3         1 ULC       0.104300
      8 C3           8.2380   -12.9290    -0.8020 ca         1 ULC       0.491900
      9 O9          10.1710   -10.9500     1.2420 os         1 ULC      -0.441300
     10 C11          7.5360   -15.2340    -0.9820 cs         1 ULC       0.560500
     11 C14          9.0700   -16.5170    -2.2350 ca         1 ULC       0.112100
     12 C16          9.0910   -18.0460    -4.0910 ca         1 ULC      -0.060300
     13 C19         10.3100   -20.2300    -5.4980 c6         1 ULC      -0.073400
     14 C23          9.9670   -17.3040    -1.5350 ca         1 ULC      -0.092000
     15 C10         11.1200    -9.8970     1.2020 c3         1 ULC       0.151900
     16 C18         10.5050   -20.1480    -3.9910 c6         1 ULC      -0.032100
     17 C5           9.6510   -11.3900     0.0960 ca         1 ULC       0.607300
     18 C6           9.9340   -10.8460    -1.1590 ca         1 ULC      -0.245000
     19 C8           8.4190   -12.4620    -2.0930 ca         1 ULC      -0.180000
     20 N2           7.3300   -13.9920    -0.5290 n          1 ULC      -0.330300
     21 N4           8.8280   -12.4120     0.2570 nb         1 ULC      -0.716000
     22 O13          8.6650   -15.3140    -1.6870 os         1 ULC      -0.320200
     23 S12          6.5350   -16.5180    -0.6830 s          1 ULC      -0.605400
     24 H1           9.4800   -10.9980    -3.2420 ha         1 ULC       0.123000
     25 H3           8.1850   -20.5020    -5.3400 hc         1 ULC       0.044700
     26 H4           8.7050   -19.9780    -6.9300 hc         1 ULC       0.044700
     27 H5           9.1250   -17.7350    -6.1940 hc         1 ULC       0.049700
     28 H6           7.5530   -18.1630    -5.5720 hc         1 ULC       0.049700
     29 H7          11.1290   -19.0920    -1.5980 ha         1 ULC       0.116000
     30 H8           6.2120   -12.6560     0.5990 h1         1 ULC       0.062033
     31 H9           5.2690   -13.9590    -0.1370 h1         1 ULC       0.062033
     32 H10          6.2800   -14.2900     1.2770 h1         1 ULC       0.062033
     33 H11         10.5380   -21.2390    -5.8450 hc         1 ULC       0.042700
     34 H12         11.0120   -19.5580    -6.0030 hc         1 ULC       0.042700
     35 H13         10.3090   -17.0120    -0.5510 ha         1 ULC       0.131000
     36 H14         11.4260    -9.7230     2.2300 h1         1 ULC       0.046700
     37 H15         11.9990   -10.1670     0.6130 h1         1 ULC       0.046700
     38 H16         10.6900    -8.9770     0.8010 h1         1 ULC       0.046700
     39 H17          9.9760   -20.9820    -3.5180 hc         1 ULC       0.051200
     40 H18         11.5590   -20.2760    -3.7310 hc         1 ULC       0.051200
     41 H19         10.6140   -10.0170    -1.2900 ha         1 ULC       0.131000
     42 H20          7.8940   -12.8980    -2.9310 ha         1 ULC       0.140000
     43 H2           7.9330   -16.2350    -4.0210 ha         1 ULC       0.123000
@<TRIPOS>BOND
     1     1    18 ar  
     2     1    19 ar  
     3     1    24 1   
     4     2    11 ar  
     5     2    12 ar  
     6     2    43 1   
     7     3     6 ar  
     8     3    12 ar  
     9     3    16 1   
    10     4     5 1   
    11     4    13 1   
    12     4    25 1   
    13     4    26 1   
    14     5    12 1   
    15     5    27 1   
    16     5    28 1   
    17     6    14 ar  
    18     6    29 1   
    19     7    20 1   
    20     7    30 1   
    21     7    31 1   
    22     7    32 1   
    23     8    19 ar  
    24     8    20 1   
    25     8    21 ar  
    26     9    15 1   
    27     9    17 1   
    28    10    20 1   
    29    10    22 1   
    30    10    23 2   
    31    11    14 ar  
    32    11    22 1   
    33    13    16 1   
    34    13    33 1   
    35    13    34 1   
    36    14    35 1   
    37    15    36 1   
    38    15    37 1   
    39    15    38 1   
    40    16    39 1   
    41    16    40 1   
    42    17    18 ar  
    43    17    21 ar  
    44    18    41 1   
    45    19    42 1   
@<TRIPOS>SUBSTRUCTURE
     1 ULC         1 TEMP              0 ****  ****    0 ROOT
