@<TRIPOS>MOLECULE
ULC
   43    45     1     0     0
SMALL
No Charge or Current Charge


@<TRIPOS>ATOM
      1 C7          10.0370   -11.7070    -2.0860 ca         1 ULC      -0.032000
      2 C15          8.5150   -16.9810    -3.4610 ca         1 ULC      -0.097000
      3 C17         10.0640   -18.8660    -3.5450 ca         1 ULC      -0.061300
      4 C20          8.6180   -20.0600    -5.7880 c6         1 ULC      -0.073400
      5 C21          8.2960   -18.6000    -5.3990 c6         1 ULC      -0.030100
      6 C22         10.6680   -18.4060    -2.3590 ca         1 ULC      -0.103000
      7 C1           6.2370   -13.6730     0.3420 c3         1 ULC       0.104300
      8 C3           8.2930   -12.8570    -0.8390 ca         1 ULC       0.491900
      9 O9           9.6820   -10.4470     1.3720 os         1 ULC      -0.441300
     10 C11          7.4230   -15.1650    -1.2320 cs         1 ULC       0.560500
     11 C14          9.1160   -16.5370    -2.2700 ca         1 ULC       0.112100
     12 C16          8.9740   -18.1490    -4.0990 ca         1 ULC      -0.060300
     13 C19         10.1300   -20.3330    -5.6610 c6         1 ULC      -0.073400
     14 C23         10.2000   -17.2410    -1.7270 ca         1 ULC      -0.092000
     15 C10         10.6710    -9.4060     1.4800 c3         1 ULC       0.151900
     16 C18         10.5930   -20.1490    -4.1980 c6         1 ULC      -0.032100
     17 C5           9.4980   -11.1690     0.2150 ca         1 ULC       0.607300
     18 C6          10.2690   -10.9340    -0.9420 ca         1 ULC      -0.245000
     19 C8           9.0380   -12.6870    -2.0270 ca         1 ULC      -0.180000
     20 N2           7.2990   -13.8970    -0.6760 n          1 ULC      -0.330300
     21 N4           8.5410   -12.1120     0.2610 nb         1 ULC      -0.716000
     22 O13          8.6940   -15.3830    -1.6570 os         1 ULC      -0.320200
     23 S12          6.2560   -16.3750    -1.1290 s          1 ULC      -0.605400
     24 H1          10.6130   -11.5490    -2.9970 ha         1 ULC       0.123000
     25 H3           8.0620   -20.7490    -5.1370 hc         1 ULC       0.044700
     26 H4           8.2820   -20.2570    -6.8150 hc         1 ULC       0.044700
     27 H5           8.6170   -17.9330    -6.2110 hc         1 ULC       0.049700
     28 H6           7.2080   -18.4780    -5.3170 hc         1 ULC       0.049700
     29 H7          11.5040   -18.9510    -1.9260 ha         1 ULC       0.116000
     30 H8           6.0550   -12.6010     0.4870 h1         1 ULC       0.062033
     31 H9           5.2900   -14.1210     0.0200 h1         1 ULC       0.062033
     32 H10          6.5410   -14.1190     1.2980 h1         1 ULC       0.062033
     33 H11         10.3630   -21.3520    -6.0010 hc         1 ULC       0.042700
     34 H12         10.6860   -19.6480    -6.3160 hc         1 ULC       0.042700
     35 H13         10.6750   -16.8870    -0.8150 ha         1 ULC       0.131000
     36 H14         10.6480    -8.9630     2.4830 h1         1 ULC       0.046700
     37 H15         11.6790    -9.8040     1.3090 h1         1 ULC       0.046700
     38 H16         10.4790    -8.6060     0.7530 h1         1 ULC       0.046700
     39 H17         10.2560   -21.0100    -3.6030 hc         1 ULC       0.051200
     40 H18         11.6910   -20.1650    -4.1610 hc         1 ULC       0.051200
     41 H19         11.0380   -10.1700    -0.9670 ha         1 ULC       0.131000
     42 H20          8.8240   -13.2820    -2.9090 ha         1 ULC       0.140000
     43 H2           7.6920   -16.4160    -3.8910 ha         1 ULC       0.123000
@<TRIPOS>BOND
     1     1    18 ar  
     2     1    19 ar  
     3     1    24 1   
     4     2    11 ar  
     5     2    12 ar  
     6     2    43 1   
     7     3     6 ar  
     8     3    12 ar  
     9     3    16 1   
    10     4     5 1   
    11     4    13 1   
    12     4    25 1   
    13     4    26 1   
    14     5    12 1   
    15     5    27 1   
    16     5    28 1   
    17     6    14 ar  
    18     6    29 1   
    19     7    20 1   
    20     7    30 1   
    21     7    31 1   
    22     7    32 1   
    23     8    19 ar  
    24     8    20 1   
    25     8    21 ar  
    26     9    15 1   
    27     9    17 1   
    28    10    20 1   
    29    10    22 1   
    30    10    23 2   
    31    11    14 ar  
    32    11    22 1   
    33    13    16 1   
    34    13    33 1   
    35    13    34 1   
    36    14    35 1   
    37    15    36 1   
    38    15    37 1   
    39    15    38 1   
    40    16    39 1   
    41    16    40 1   
    42    17    18 ar  
    43    17    21 ar  
    44    18    41 1   
    45    19    42 1   
@<TRIPOS>SUBSTRUCTURE
     1 ULC         1 TEMP              0 ****  ****    0 ROOT
