@<TRIPOS>MOLECULE
ULD
   38    40     1     0     0
SMALL
No Charge or Current Charge


@<TRIPOS>ATOM
      1 N1          18.3560    -3.7060   -12.0710 n1         1 ULD      -0.438000
      2 C15         18.8440    -2.8570   -11.4410 c1         1 ULD       0.306900
      3 C13         19.4950    -1.7830   -10.6780 cy         1 ULD      -0.027600
      4 C12         19.9220    -0.4970   -11.4700 cy         1 ULD      -0.086400
      5 C14         21.0240    -1.9490   -10.3680 cy         1 ULD      -0.086400
      6 C11         21.0810    -0.3860   -10.4280 cy         1 ULD       0.145300
      7 O4          22.2960     0.1810   -10.9230 os         1 ULD      -0.325100
      8 C2          23.4840     0.1220   -10.2230 ca         1 ULD       0.234100
      9 C3          23.5390    -0.1830    -8.8480 ca         1 ULD      -0.211000
     10 C4          24.7760    -0.2190    -8.1790 ca         1 ULD       0.038000
     11 C8          24.6810     0.3820   -10.9050 ca         1 ULD      -0.127300
     12 C9          24.8040     0.7350   -12.3690 c5         1 ULD      -0.065100
     13 C5          26.3230     0.4260   -12.6170 c5         1 ULD       0.181000
     14 F2          26.8460     1.2340   -13.6280 f          1 ULD      -0.101000
     15 F1          26.4780    -0.8990   -13.0230 f          1 ULD      -0.101000
     16 C7          25.9080     0.3430   -10.2610 ca         1 ULD       0.016700
     17 C6          27.0470     0.6550   -11.2240 c5         1 ULD       0.162600
     18 O1          27.5230     1.9960   -11.0360 oh         1 ULD      -0.631000
     19 C1          25.9770     0.0490    -8.8750 ca         1 ULD      -0.323500
     20 S1          27.5430     0.0040    -7.9530 sy         1 ULD       1.048500
     21 O2          27.2320     0.1670    -6.5240 o          1 ULD      -0.485500
     22 O3          28.4880     0.9140    -8.6180 o          1 ULD      -0.485500
     23 C10         28.1540    -1.7180    -8.1950 c3         1 ULD       0.143000
     24 F3          28.3500    -1.9990    -9.5050 f          1 ULD      -0.098000
     25 F4          29.3320    -1.9150    -7.5550 f          1 ULD      -0.098000
     26 F5          27.2710    -2.6250    -7.7130 f          1 ULD      -0.098000
     27 H1          18.8720    -1.5860    -9.7960 hc         1 ULD       0.088700
     28 H2          20.2560    -0.6750   -12.5000 hc         1 ULD       0.079450
     29 H3          19.2020     0.3280   -11.4740 hc         1 ULD       0.079450
     30 H4          21.2730    -2.4000    -9.4020 hc         1 ULD       0.079450
     31 H5          21.6060    -2.4530   -11.1500 hc         1 ULD       0.079450
     32 H6          20.7740     0.1110    -9.4980 h1         1 ULD       0.066700
     33 H7          22.6350    -0.3830    -8.2810 ha         1 ULD       0.132000
     34 H8          24.7890    -0.4540    -7.1150 ha         1 ULD       0.146000
     35 H9          24.1490     0.1400   -13.0160 hc         1 ULD       0.093700
     36 H10         24.5730     1.7920   -12.5460 hc         1 ULD       0.093700
     37 H11         27.8690    -0.0660   -11.1130 h1         1 ULD       0.091700
     38 H12         27.9840     1.9950   -10.1630 ho         1 ULD       0.481000
@<TRIPOS>BOND
     1     1     2 3   
     2     2     3 1   
     3     3     4 1   
     4     3     5 1   
     5     3    27 1   
     6     4     6 1   
     7     4    28 1   
     8     4    29 1   
     9     5     6 1   
    10     5    30 1   
    11     5    31 1   
    12     6     7 1   
    13     6    32 1   
    14     7     8 1   
    15     8     9 ar  
    16     8    11 ar  
    17     9    10 ar  
    18     9    33 1   
    19    10    19 ar  
    20    10    34 1   
    21    11    12 1   
    22    11    16 ar  
    23    12    13 1   
    24    12    35 1   
    25    12    36 1   
    26    13    14 1   
    27    13    15 1   
    28    13    17 1   
    29    16    17 1   
    30    16    19 ar  
    31    17    18 1   
    32    17    37 1   
    33    18    38 1   
    34    19    20 1   
    35    20    21 2   
    36    20    22 2   
    37    20    23 1   
    38    23    24 1   
    39    23    25 1   
    40    23    26 1   
@<TRIPOS>SUBSTRUCTURE
     1 ULD         1 TEMP              0 ****  ****    0 ROOT
