@<TRIPOS>MOLECULE
ULD
   38    40     1     0     0
SMALL
abcg2


@<TRIPOS>ATOM
      1 N1          18.3340    -3.4790   -12.1850 n1         1 ULD      -0.438000
      2 C15         18.7980    -2.6590   -11.5230 c1         1 ULD       0.306900
      3 C13         19.3980    -1.6310   -10.7000 cy         1 ULD      -0.027600
      4 C12         19.9900    -0.3780   -11.4150 cy         1 ULD      -0.086400
      5 C14         20.8110    -1.9100   -10.1070 cy         1 ULD      -0.086400
      6 C11         21.1570    -0.4420   -10.4270 cy         1 ULD       0.145300
      7 O4          22.4160    -0.1730   -11.0440 os         1 ULD      -0.325100
      8 C2          23.5310    -0.1690   -10.2960 ca         1 ULD       0.234100
      9 C3          23.5750    -0.4810    -8.9320 ca         1 ULD      -0.211000
     10 C4          24.7780    -0.4260    -8.2470 ca         1 ULD       0.038000
     11 C8          24.7160     0.1810   -10.9560 ca         1 ULD      -0.127300
     12 C9          24.8660     0.5540   -12.4050 c5         1 ULD      -0.065100
     13 C5          26.3790     0.5100   -12.5840 c5         1 ULD       0.181000
     14 F2          26.8390     1.3930   -13.5130 f          1 ULD      -0.101000
     15 F1          26.7530    -0.7410   -13.0330 f          1 ULD      -0.101000
     16 C7          25.9190     0.2400   -10.2740 ca         1 ULD       0.016700
     17 C6          27.0270     0.7190   -11.1950 c5         1 ULD       0.162600
     18 O1          27.3000     2.0980   -11.0230 oh         1 ULD      -0.631000
     19 C1          25.9530    -0.0600    -8.9060 ca         1 ULD      -0.323500
     20 S1          27.4230     0.0380    -7.9720 sy         1 ULD       1.048500
     21 O2          27.1310     0.0850    -6.5630 o          1 ULD      -0.485500
     22 O3          28.3350     0.9930    -8.5610 o          1 ULD      -0.485500
     23 C10         28.2580    -1.6280    -8.2310 c3         1 ULD       0.143000
     24 F3          28.3760    -1.8980    -9.5320 f          1 ULD      -0.098000
     25 F4          29.4720    -1.5800    -7.6830 f          1 ULD      -0.098000
     26 F5          27.5520    -2.5950    -7.6490 f          1 ULD      -0.098000
     27 H1          18.6880    -1.3480    -9.9220 hc         1 ULD       0.088700
     28 H2          20.3260    -0.6220   -12.4220 hc         1 ULD       0.079450
     29 H3          19.3770     0.5190   -11.4260 hc         1 ULD       0.079450
     30 H4          20.8510    -2.2380    -9.0710 hc         1 ULD       0.079450
     31 H5          21.3810    -2.5870   -10.7410 hc         1 ULD       0.079450
     32 H6          21.0230     0.2220    -9.5720 h1         1 ULD       0.066700
     33 H7          22.6820    -0.7640    -8.3980 ha         1 ULD       0.132000
     34 H8          24.8030    -0.6620    -7.1930 ha         1 ULD       0.146000
     35 H9          24.3690    -0.1330   -13.0890 hc         1 ULD       0.093700
     36 H10         24.4930     1.5620   -12.6010 hc         1 ULD       0.093700
     37 H11         27.9390     0.1240   -11.1280 h1         1 ULD       0.091700
     38 H12         27.7380     2.1860   -10.1630 ho         1 ULD       0.481000
@<TRIPOS>BOND
     1     1     2 3   
     2     2     3 1   
     3     3     4 1   
     4     3     5 1   
     5     3    27 1   
     6     4     6 1   
     7     4    28 1   
     8     4    29 1   
     9     5     6 1   
    10     5    30 1   
    11     5    31 1   
    12     6     7 1   
    13     6    32 1   
    14     7     8 1   
    15     8     9 ar  
    16     8    11 ar  
    17     9    10 ar  
    18     9    33 1   
    19    10    19 ar  
    20    10    34 1   
    21    11    12 1   
    22    11    16 ar  
    23    12    13 1   
    24    12    35 1   
    25    12    36 1   
    26    13    14 1   
    27    13    15 1   
    28    13    17 1   
    29    16    17 1   
    30    16    19 ar  
    31    17    18 1   
    32    17    37 1   
    33    18    38 1   
    34    19    20 1   
    35    20    21 2   
    36    20    22 2   
    37    20    23 1   
    38    23    24 1   
    39    23    25 1   
    40    23    26 1   
@<TRIPOS>SUBSTRUCTURE
     1 ULD         1 TEMP              0 ****  ****    0 ROOT
