@<TRIPOS>MOLECULE
ULE
   45    47     1     0     0
SMALL
No Charge or Current Charge


@<TRIPOS>ATOM
      1 N1          41.4490    17.4730     8.4790 nb         1 ULE      -0.675000
      2 C4          44.0750    17.3300     9.5510 ca         1 ULE      -0.118600
      3 C5          43.0830    18.1540    10.1250 ca         1 ULE      -0.090000
      4 C6          41.7930    18.2040     9.5670 ca         1 ULE       0.355300
      5 C7          40.7190    19.0900    10.2150 c3         1 ULE      -0.062700
      6 C8          39.5010    19.4050     9.3070 c3         1 ULE      -0.073100
      7 C10         40.4780    19.2050    12.7530 ca         1 ULE      -0.101500
      8 C13         39.2480    16.6800    12.8280 ca         1 ULE      -0.110000
      9 C15         45.4620    17.2820    10.1590 c          1 ULE       0.613700
     10 C17         48.5220    15.1270     9.4220 cx         1 ULE      -0.134400
     11 O1          45.7590    17.9430    11.1460 o          1 ULE      -0.585100
     12 N2          46.3830    16.4560     9.5480 ns         1 ULE      -0.476900
     13 C16         47.7400    16.2850     9.9920 cx         1 ULE       0.046700
     14 C18         48.0480    15.0850    10.8540 cx         1 ULE      -0.134400
     15 C3          43.7020    16.5770     8.4120 ca         1 ULE      -0.094000
     16 C2          42.3880    16.6670     7.9010 ca         1 ULE       0.288500
     17 C1          41.9930    15.8420     6.6680 c          1 ULE       0.504600
     18 O           42.7630    15.0890     6.0800 o          1 ULE      -0.609100
     19 N           40.6870    15.9980     6.2450 ns         1 ULE      -0.486900
     20 C           40.0890    15.3150     5.0960 c3         1 ULE       0.095300
     21 C9          40.2700    18.4970    11.5510 ca         1 ULE      -0.085300
     22 C14         39.6530    17.2290    11.5990 ca         1 ULE      -0.101500
     23 C12         39.4580    17.3930    14.0200 ca         1 ULE      -0.107000
     24 C11         40.0730    18.6550    13.9810 ca         1 ULE      -0.110000
     25 H1          43.3020    18.7530    11.0050 ha         1 ULE       0.148000
     26 H2          41.1930    20.0600    10.4090 hc         1 ULE       0.062700
     27 H3          38.8170    20.0970     9.8140 hc         1 ULE       0.041033
     28 H4          39.8260    19.8770     8.3720 hc         1 ULE       0.041033
     29 H5          38.9390    18.4970     9.0590 hc         1 ULE       0.041033
     30 H6          40.9540    20.1830    12.7380 ha         1 ULE       0.115000
     31 H7          38.7740    15.7020    12.8560 ha         1 ULE       0.113500
     32 H9          49.5850    15.2770     9.2440 hc         1 ULE       0.078700
     33 H10         46.0670    15.9480     8.7330 hn         1 ULE       0.326500
     34 H11         48.2730    17.2160    10.1930 h1         1 ULE       0.091700
     35 H12         47.2320    14.4100    11.1000 hc         1 ULE       0.078700
     36 H13         48.7900    15.2070    11.6390 hc         1 ULE       0.078700
     37 H14         44.4070    15.9190     7.9140 ha         1 ULE       0.148000
     38 H15         40.1220    16.6420     6.7920 hn         1 ULE       0.343500
     39 H16         39.0420    15.6240     4.9900 h1         1 ULE       0.041367
     40 H17         40.6390    15.5780     4.1830 h1         1 ULE       0.041367
     41 H18         40.1330    14.2290     5.2480 h1         1 ULE       0.041367
     42 H19         39.4900    16.6660    10.6830 ha         1 ULE       0.115000
     43 H20         39.1450    16.9680    14.9710 ha         1 ULE       0.113000
     44 H21         40.2370    19.2080    14.9040 ha         1 ULE       0.113500
     45 H8          48.0290    14.4740     8.7060 hc         1 ULE       0.078700
@<TRIPOS>BOND
     1     1     4 ar  
     2     1    16 ar  
     3     2     3 ar  
     4     2     9 1   
     5     2    15 ar  
     6     3     4 ar  
     7     3    25 1   
     8     4     5 1   
     9     5     6 1   
    10     5    21 1   
    11     5    26 1   
    12     6    27 1   
    13     6    28 1   
    14     6    29 1   
    15     7    21 ar  
    16     7    24 ar  
    17     7    30 1   
    18     8    22 ar  
    19     8    23 ar  
    20     8    31 1   
    21     9    11 2   
    22     9    12 1   
    23    10    13 1   
    24    10    14 1   
    25    10    32 1   
    26    10    45 1   
    27    12    13 1   
    28    12    33 1   
    29    13    14 1   
    30    13    34 1   
    31    14    35 1   
    32    14    36 1   
    33    15    16 ar  
    34    15    37 1   
    35    16    17 1   
    36    17    18 2   
    37    17    19 1   
    38    19    20 1   
    39    19    38 1   
    40    20    39 1   
    41    20    40 1   
    42    20    41 1   
    43    21    22 ar  
    44    22    42 1   
    45    23    24 ar  
    46    23    43 1   
    47    24    44 1   
@<TRIPOS>SUBSTRUCTURE
     1 ULE         1 TEMP              0 ****  ****    0 ROOT
