@<TRIPOS>MOLECULE
ULE
   45    47     1     0     0
SMALL
bcc


@<TRIPOS>ATOM
      1 N1          41.4930    17.5210     8.4800 nb         1 ULE      -0.675000
      2 C4          44.1480    17.3920     9.2450 ca         1 ULE      -0.118600
      3 C5          43.2480    18.2010     9.9190 ca         1 ULE      -0.173300
      4 C6          41.9150    18.2340     9.5120 ca         1 ULE       0.420600
      5 C7          40.9110    19.0740    10.2680 c3         1 ULE      -0.062700
      6 C8          39.7470    19.5420     9.3960 c3         1 ULE      -0.073100
      7 C10         40.5780    18.8450    12.7610 ca         1 ULE      -0.119500
      8 C13         39.3280    16.3920    12.4590 ca         1 ULE      -0.128000
      9 C15         45.5840    17.3940     9.6860 c          1 ULE       0.680700
     10 C17         48.1520    14.8250    10.2690 cx         1 ULE      -0.134400
     11 O1          46.0690    18.3810    10.2140 o          1 ULE      -0.585100
     12 N2          46.2700    16.2620     9.4650 ns         1 ULE      -0.543900
     13 C16         47.6580    16.1440     9.7740 cx         1 ULE       0.046700
     14 C18         48.0850    15.9950    11.2010 cx         1 ULE      -0.134400
     15 C3          43.6890    16.6510     8.1600 ca         1 ULE      -0.177300
     16 C2          42.3520    16.7560     7.8190 ca         1 ULE       0.353800
     17 C1          41.8220    15.9830     6.6410 c          1 ULE       0.571600
     18 O           42.5550    15.2710     5.9680 o          1 ULE      -0.609100
     19 N           40.5190    16.1450     6.4120 ns         1 ULE      -0.553900
     20 C           39.8330    15.4870     5.3280 c3         1 ULE       0.095300
     21 C9          40.4220    18.3140    11.4850 ca         1 ULE      -0.085300
     22 C14         39.7920    17.0780    11.3460 ca         1 ULE      -0.119500
     23 C12         39.4860    16.9320    13.7300 ca         1 ULE      -0.125000
     24 C11         40.1130    18.1610    13.8780 ca         1 ULE      -0.128000
     25 H1          43.5690    18.8020    10.7600 ha         1 ULE       0.166000
     26 H2          41.4430    19.9590    10.6260 hc         1 ULE       0.062700
     27 H3          39.1100    20.2180     9.9660 hc         1 ULE       0.041033
     28 H4          40.1060    20.0780     8.5180 hc         1 ULE       0.041033
     29 H5          39.1330    18.7090     9.0560 hc         1 ULE       0.041033
     30 H6          41.0680    19.8040    12.8840 ha         1 ULE       0.133000
     31 H7          38.8420    15.4330    12.3340 ha         1 ULE       0.131500
     32 H9          49.1190    14.4900     9.9190 hc         1 ULE       0.078700
     33 H10         45.8090    15.4670     9.0510 hn         1 ULE       0.326500
     34 H11         48.3170    16.7050     9.1200 h1         1 ULE       0.091700
     35 H12         47.3090    15.9910    11.9560 hc         1 ULE       0.078700
     36 H13         49.0060    16.4760    11.5020 hc         1 ULE       0.078700
     37 H14         44.3430    16.0280     7.5660 ha         1 ULE       0.166000
     38 H15         40.0100    16.7630     7.0250 hn         1 ULE       0.343500
     39 H16         38.7820    15.7560     5.3720 h1         1 ULE       0.041367
     40 H17         40.2260    15.7920     4.3570 h1         1 ULE       0.041367
     41 H18         39.9140    14.4020     5.4020 h1         1 ULE       0.041367
     42 H19         39.6650    16.6440    10.3610 ha         1 ULE       0.133000
     43 H20         39.1230    16.3970    14.5980 ha         1 ULE       0.131000
     44 H21         40.2430    18.5900    14.8630 ha         1 ULE       0.131500
     45 H8          47.4250    14.0330    10.4030 hc         1 ULE       0.078700
@<TRIPOS>BOND
     1     1     4 ar  
     2     1    16 ar  
     3     2     3 ar  
     4     2     9 1   
     5     2    15 ar  
     6     3     4 ar  
     7     3    25 1   
     8     4     5 1   
     9     5     6 1   
    10     5    21 1   
    11     5    26 1   
    12     6    27 1   
    13     6    28 1   
    14     6    29 1   
    15     7    21 ar  
    16     7    24 ar  
    17     7    30 1   
    18     8    22 ar  
    19     8    23 ar  
    20     8    31 1   
    21     9    11 2   
    22     9    12 1   
    23    10    13 1   
    24    10    14 1   
    25    10    32 1   
    26    10    45 1   
    27    12    13 1   
    28    12    33 1   
    29    13    14 1   
    30    13    34 1   
    31    14    35 1   
    32    14    36 1   
    33    15    16 ar  
    34    15    37 1   
    35    16    17 1   
    36    17    18 2   
    37    17    19 1   
    38    19    20 1   
    39    19    38 1   
    40    20    39 1   
    41    20    40 1   
    42    20    41 1   
    43    21    22 ar  
    44    22    42 1   
    45    23    24 ar  
    46    23    43 1   
    47    24    44 1   
@<TRIPOS>SUBSTRUCTURE
     1 ULE         1 TEMP              0 ****  ****    0 ROOT
