@<TRIPOS>MOLECULE
ULG
   34    36     1     0     0
SMALL
No Charge or Current Charge


@<TRIPOS>ATOM
      1 F4          28.6140     0.2150    -9.5130 f          1 ULG      -0.113333
      2 C15         27.7520    -0.7270    -9.0680 c3         1 ULG       0.358300
      3 F2          28.0130    -1.8610    -9.7560 f          1 ULG      -0.113333
      4 F3          28.0840    -0.9740    -7.7800 f          1 ULG      -0.113333
      5 C3          26.2890    -0.2850    -9.2390 ca         1 ULG      -0.176300
      6 C2          25.4230    -0.1890    -8.1210 ca         1 ULG      -0.061000
      7 C1          24.0810     0.2070    -8.2810 ca         1 ULG      -0.111000
      8 C12         25.7610     0.0340   -10.5160 ca         1 ULG      -0.078300
      9 C11         26.4880     0.0300   -11.8470 c5         1 ULG       0.214600
     10 O1          27.2320     1.2330   -12.0230 oh         1 ULG      -0.650000
     11 C13         24.4360     0.4120   -10.6680 ca         1 ULG      -0.081300
     12 C14         24.0920     0.7090   -12.1080 c5         1 ULG      -0.030100
     13 C10         25.2690    -0.0370   -12.8380 c5         1 ULG      -0.077400
     14 C           23.5790     0.5020    -9.5580 ca         1 ULG       0.126100
     15 O           22.2650     0.8810    -9.6990 os         1 ULG      -0.243200
     16 C7          21.3260     0.0840   -10.3130 ca         1 ULG       0.190100
     17 C6          20.1310     0.6730   -10.7490 ca         1 ULG      -0.229000
     18 C5          19.1540    -0.1090   -11.3800 ca         1 ULG       0.234500
     19 F           18.0060     0.4640   -11.8020 f          1 ULG      -0.167000
     20 C8          21.5350    -1.2960   -10.5020 ca         1 ULG      -0.229000
     21 C9          20.5520    -2.0680   -11.1350 ca         1 ULG       0.234500
     22 F1          20.7540    -3.3900   -11.3190 f          1 ULG      -0.167000
     23 C4          19.3600    -1.4800   -11.5770 ca         1 ULG      -0.233000
     24 H1          25.7800    -0.4210    -7.1190 ha         1 ULG       0.138000
     25 H2          23.4280     0.2770    -7.4150 ha         1 ULG       0.139000
     26 H3          27.1370    -0.8500   -11.9600 h1         1 ULG       0.059700
     27 H4          27.7720     1.3410   -11.2110 ho         1 ULG       0.455000
     28 H5          24.1100     1.7870   -12.3080 hc         1 ULG       0.070200
     29 H6          23.1140     0.3290   -12.4200 hc         1 ULG       0.070200
     30 H7          24.9940    -1.0840   -13.0120 hc         1 ULG       0.063200
     31 H8          25.4970     0.3940   -13.8190 hc         1 ULG       0.063200
     32 H9          19.9630     1.7360   -10.6010 ha         1 ULG       0.151500
     33 H10         22.4480    -1.7760   -10.1640 ha         1 ULG       0.151500
     34 H11         18.6010    -2.0820   -12.0660 ha         1 ULG       0.155000
@<TRIPOS>BOND
     1     1     2 1   
     2     2     3 1   
     3     2     4 1   
     4     2     5 1   
     5     5     6 ar  
     6     5     8 ar  
     7     6     7 ar  
     8     6    24 1   
     9     7    14 ar  
    10     7    25 1   
    11     8     9 1   
    12     8    11 ar  
    13     9    10 1   
    14     9    13 1   
    15     9    26 1   
    16    10    27 1   
    17    11    12 1   
    18    11    14 ar  
    19    12    13 1   
    20    12    28 1   
    21    12    29 1   
    22    13    30 1   
    23    13    31 1   
    24    14    15 1   
    25    15    16 1   
    26    16    17 ar  
    27    16    20 ar  
    28    17    18 ar  
    29    17    32 1   
    30    18    19 1   
    31    18    23 ar  
    32    20    21 ar  
    33    20    33 1   
    34    21    22 1   
    35    21    23 ar  
    36    23    34 1   
@<TRIPOS>SUBSTRUCTURE
     1 ULG         1 TEMP              0 ****  ****    0 ROOT
