@<TRIPOS>MOLECULE
ULG
   34    36     1     0     0
SMALL
bcc


@<TRIPOS>ATOM
      1 F4          28.5130     0.1270    -9.4210 f          1 ULG      -0.234633
      2 C15         27.6080    -0.7820    -9.0150 c3         1 ULG       0.722200
      3 F2          27.8760    -1.9070    -9.6930 f          1 ULG      -0.234633
      4 F3          27.8660    -1.0320    -7.7310 f          1 ULG      -0.234633
      5 C3          26.2030    -0.3160    -9.2430 ca         1 ULG      -0.176300
      6 C2          25.3100    -0.2300    -8.1800 ca         1 ULG      -0.079000
      7 C1          24.0000     0.1780    -8.3900 ca         1 ULG      -0.129000
      8 C12         25.7660     0.0110   -10.5230 ca         1 ULG      -0.078300
      9 C11         26.5310     0.0900   -11.8360 c5         1 ULG       0.191400
     10 O1          27.1630     1.3460   -11.9720 oh         1 ULG      -0.587800
     11 C13         24.4510     0.4060   -10.7380 ca         1 ULG      -0.081300
     12 C14         24.1940     0.6830   -12.1910 c5         1 ULG      -0.030100
     13 C10         25.4010     0.0160   -12.8610 c5         1 ULG      -0.077400
     14 C           23.5770     0.5000    -9.6690 ca         1 ULG       0.126100
     15 O           22.2940     0.9450    -9.8610 os         1 ULG      -0.243200
     16 C7          21.3640     0.0990   -10.3680 ca         1 ULG       0.190100
     17 C6          20.1370     0.6710   -10.6940 ca         1 ULG      -0.247000
     18 C5          19.1540    -0.1530   -11.2000 ca         1 ULG       0.199400
     19 F           17.9690     0.3820   -11.5110 f          1 ULG      -0.131900
     20 C8          21.5960    -1.2590   -10.5520 ca         1 ULG      -0.247000
     21 C9          20.5670    -2.0220   -11.0710 ca         1 ULG       0.199400
     22 F1          20.7820    -3.3280   -11.2530 f          1 ULG      -0.131900
     23 C4          19.3320    -1.5080   -11.4090 ca         1 ULG      -0.251000
     24 H1          25.6130    -0.4860    -7.1750 ha         1 ULG       0.156000
     25 H2          23.3120     0.2410    -7.5580 ha         1 ULG       0.157000
     26 H3          27.2440    -0.7290   -11.9700 h1         1 ULG       0.059700
     27 H4          27.9040     1.3950   -11.3610 ho         1 ULG       0.416000
     28 H5          24.1650     1.7600   -12.3730 hc         1 ULG       0.070200
     29 H6          23.2470     0.2730   -12.5430 hc         1 ULG       0.070200
     30 H7          25.1720    -1.0340   -13.0520 hc         1 ULG       0.063200
     31 H8          25.6830     0.4710   -13.8100 hc         1 ULG       0.063200
     32 H9          19.9620     1.7290   -10.5520 ha         1 ULG       0.169500
     33 H10         22.5390    -1.7270   -10.3000 ha         1 ULG       0.169500
     34 H11         18.5450    -2.1310   -11.8120 ha         1 ULG       0.173000
@<TRIPOS>BOND
     1     1     2 1   
     2     2     3 1   
     3     2     4 1   
     4     2     5 1   
     5     5     6 ar  
     6     5     8 ar  
     7     6     7 ar  
     8     6    24 1   
     9     7    14 ar  
    10     7    25 1   
    11     8     9 1   
    12     8    11 ar  
    13     9    10 1   
    14     9    13 1   
    15     9    26 1   
    16    10    27 1   
    17    11    12 1   
    18    11    14 ar  
    19    12    13 1   
    20    12    28 1   
    21    12    29 1   
    22    13    30 1   
    23    13    31 1   
    24    14    15 1   
    25    15    16 1   
    26    16    17 ar  
    27    16    20 ar  
    28    17    18 ar  
    29    17    32 1   
    30    18    19 1   
    31    18    23 ar  
    32    20    21 ar  
    33    20    33 1   
    34    21    22 1   
    35    21    23 ar  
    36    23    34 1   
@<TRIPOS>SUBSTRUCTURE
     1 ULG         1 TEMP              0 ****  ****    0 ROOT
