@<TRIPOS>MOLECULE
ULH
   46    48     1     0     0
SMALL
abcg2


@<TRIPOS>ATOM
      1 C10         42.9970    16.6120     8.2610 cc         1 ULH      -0.006000
      2 C13         42.3570    18.0200    10.0450 cd         1 ULH       0.055600
      3 C22         40.1550    18.5290    11.7950 ca         1 ULH      -0.121300
      4 C01         39.8990    15.1140     4.8170 c3         1 ULH       0.100300
      5 N05         40.2420    15.8420     6.0140 ns         1 ULH      -0.498900
      6 C07         41.4840    15.8480     6.5030 c          1 ULH       0.623300
      7 O08         42.4060    15.2370     5.9710 o          1 ULH      -0.635100
      8 C09         41.7290    16.6380     7.7540 cd         1 ULH      -0.316400
      9 C12         43.3520    17.3190     9.4240 cc         1 ULH      -0.297200
     10 N15         41.0990    18.0520     9.5850 n          1 ULH      -0.255000
     11 C16         40.1020    18.8700    10.3220 c3         1 ULH       0.138000
     12 C18         40.2910    20.3360     9.9710 c3         1 ULH      -0.106100
     13 C23         39.8070    17.2370    12.1920 ca         1 ULH      -0.092500
     14 C25         39.8440    16.8730    13.5280 ca         1 ULH      -0.108000
     15 C27         40.2280    17.7990    14.4910 ca         1 ULH      -0.094000
     16 C29         40.5700    19.0860    14.1070 ca         1 ULH      -0.108000
     17 C31         40.5330    19.4490    12.7640 ca         1 ULH      -0.092500
     18 C33         40.6970    17.4040     8.4150 c          1 ULH       0.571200
     19 O34         39.5360    17.5150     8.0310 o          1 ULH      -0.578000
     20 C35         44.7030    17.3490    10.0510 c          1 ULH       0.637300
     21 O36         44.8810    17.9150    11.1200 o          1 ULH      -0.611100
     22 N37         45.6940    16.7240     9.3900 ns         1 ULH      -0.477900
     23 C39         47.0280    16.6790     9.8930 cx         1 ULH       0.046700
     24 C41         47.8130    15.4320     9.6450 cx         1 ULH      -0.132400
     25 C44         47.3460    15.7600    11.0290 cx         1 ULH      -0.132400
     26 H1          43.7220    16.0100     7.7270 ha         1 ULH       0.211000
     27 H2          42.5530    18.5760    10.9510 h4         1 ULH       0.238000
     28 H3          38.8390    15.2540     4.6230 h1         1 ULH       0.038367
     29 H4          40.4560    15.4730     3.9500 h1         1 ULH       0.038367
     30 H5          40.0900    14.0460     4.9240 h1         1 ULH       0.038367
     31 H6          39.5370    16.3800     6.4970 hn         1 ULH       0.352500
     32 H7          39.1320    18.5530     9.9430 h1         1 ULH       0.104700
     33 H8          39.5320    20.9430    10.4630 hc         1 ULH       0.052367
     34 H9          41.2720    20.7110    10.2630 hc         1 ULH       0.052367
     35 H10         40.1830    20.4760     8.8960 hc         1 ULH       0.052367
     36 H11         39.5060    16.5110    11.4460 ha         1 ULH       0.117500
     37 H12         39.5690    15.8670    13.8190 ha         1 ULH       0.118000
     38 H13         40.2560    17.5170    15.5360 ha         1 ULH       0.117000
     39 H14         40.8680    19.8140    14.8500 ha         1 ULH       0.118000
     40 H15         40.8050    20.4590    12.4870 ha         1 ULH       0.117500
     41 H16         45.5450    16.3850     8.4540 hn         1 ULH       0.323500
     42 H17         47.5690    17.6190     9.8540 h1         1 ULH       0.086700
     43 H18         47.3150    14.6230     9.1250 hc         1 ULH       0.078450
     44 H19         48.8630    15.5380     9.4090 hc         1 ULH       0.078450
     45 H20         46.5350    15.1730    11.4390 hc         1 ULH       0.078450
     46 H21         48.0730    16.0960    11.7570 hc         1 ULH       0.078450
@<TRIPOS>BOND
     1     1     8 2   
     2     1     9 1   
     3     1    26 1   
     4     2     9 2   
     5     2    10 1   
     6     2    27 1   
     7     3    11 1   
     8     3    13 ar  
     9     3    17 ar  
    10     4     5 1   
    11     4    28 1   
    12     4    29 1   
    13     4    30 1   
    14     5     6 1   
    15     5    31 1   
    16     6     7 2   
    17     6     8 1   
    18     8    18 1   
    19     9    20 1   
    20    10    11 1   
    21    10    18 1   
    22    11    12 1   
    23    11    32 1   
    24    12    33 1   
    25    12    34 1   
    26    12    35 1   
    27    13    14 ar  
    28    13    36 1   
    29    14    15 ar  
    30    14    37 1   
    31    15    16 ar  
    32    15    38 1   
    33    16    17 ar  
    34    16    39 1   
    35    17    40 1   
    36    18    19 2   
    37    20    21 2   
    38    20    22 1   
    39    22    23 1   
    40    22    41 1   
    41    23    24 1   
    42    23    25 1   
    43    23    42 1   
    44    24    25 1   
    45    24    43 1   
    46    24    44 1   
    47    25    45 1   
    48    25    46 1   
@<TRIPOS>SUBSTRUCTURE
     1 ULH         1 TEMP              0 ****  ****    0 ROOT
