@<TRIPOS>MOLECULE
ULH
   46    48     1     0     0
SMALL
No Charge or Current Charge


@<TRIPOS>ATOM
      1 C10         43.1170    16.6080     8.3160 cc         1 ULH      -0.006000
      2 C13         42.4100    18.0950    10.0930 cd         1 ULH       0.055600
      3 C22         40.0390    18.5830    11.8200 ca         1 ULH      -0.121300
      4 C01         39.9180    15.0310     4.8600 c3         1 ULH       0.100300
      5 N05         40.3410    15.7690     6.0500 ns         1 ULH      -0.498900
      6 C07         41.6120    15.7740     6.5620 c          1 ULH       0.623300
      7 O08         42.5010    15.1300     6.0230 o          1 ULH      -0.635100
      8 C09         41.8340    16.5960     7.7900 cd         1 ULH      -0.316400
      9 C12         43.4230    17.3760     9.4960 cc         1 ULH      -0.297200
     10 N15         41.1080    18.1050     9.6020 n          1 ULH      -0.255000
     11 C16         40.0710    18.9020    10.3170 c3         1 ULH       0.138000
     12 C18         40.2010    20.4050     9.9780 c3         1 ULH      -0.106100
     13 C23         39.5460    17.3250    12.2260 ca         1 ULH      -0.092500
     14 C25         39.5040    16.9750    13.5860 ca         1 ULH      -0.108000
     15 C27         39.9560    17.8800    14.5590 ca         1 ULH      -0.094000
     16 C29         40.4520    19.1340    14.1690 ca         1 ULH      -0.108000
     17 C31         40.4960    19.4860    12.8090 ca         1 ULH      -0.092500
     18 C33         40.7430    17.3800     8.4400 c          1 ULH       0.571200
     19 O34         39.5960    17.4120     8.0120 o          1 ULH      -0.578000
     20 C35         44.7770    17.4400    10.1140 c          1 ULH       0.637300
     21 O36         45.0200    18.0970    11.1160 o          1 ULH      -0.611100
     22 N37         45.7570    16.7060     9.4820 ns         1 ULH      -0.477900
     23 C39         47.1240    16.6300     9.9220 cx         1 ULH       0.046700
     24 C41         47.9980    15.5610     9.3140 cx         1 ULH      -0.132400
     25 C44         47.5300    15.4320    10.7440 cx         1 ULH      -0.132400
     26 H1          43.9020    16.0320     7.8310 ha         1 ULH       0.211000
     27 H2          42.5480    18.7030    10.9840 h4         1 ULH       0.238000
     28 H3          38.8500    15.2070     4.6800 h1         1 ULH       0.038367
     29 H4          40.4930    15.3720     3.9900 h1         1 ULH       0.038367
     30 H5          40.0870    13.9570     5.0120 h1         1 ULH       0.038367
     31 H6          39.6590    16.3300     6.5540 hn         1 ULH       0.352500
     32 H7          39.0790    18.6080     9.9510 h1         1 ULH       0.104700
     33 H8          39.4280    20.9860    10.4950 hc         1 ULH       0.052367
     34 H9          41.1840    20.7970    10.2620 hc         1 ULH       0.052367
     35 H10         40.0750    20.5610     8.9000 hc         1 ULH       0.052367
     36 H11         39.1970    16.6120    11.4820 ha         1 ULH       0.117500
     37 H12         39.1210    16.0010    13.8850 ha         1 ULH       0.118000
     38 H13         39.9240    17.6090    15.6130 ha         1 ULH       0.117000
     39 H14         40.8050    19.8350    14.9230 ha         1 ULH       0.118000
     40 H15         40.8910    20.4630    12.5410 ha         1 ULH       0.117500
     41 H16         45.4830    16.1960     8.6560 hn         1 ULH       0.323500
     42 H17         47.5790    17.5950    10.1550 h1         1 ULH       0.086700
     43 H18         47.5590    14.8950     8.5760 hc         1 ULH       0.078450
     44 H19         49.0440    15.8030     9.1430 hc         1 ULH       0.078450
     45 H20         46.7720    14.6840    10.9660 hc         1 ULH       0.078450
     46 H21         48.2610    15.5880    11.5330 hc         1 ULH       0.078450
@<TRIPOS>BOND
     1     1     8 2   
     2     1     9 1   
     3     1    26 1   
     4     2     9 2   
     5     2    10 1   
     6     2    27 1   
     7     3    11 1   
     8     3    13 ar  
     9     3    17 ar  
    10     4     5 1   
    11     4    28 1   
    12     4    29 1   
    13     4    30 1   
    14     5     6 1   
    15     5    31 1   
    16     6     7 2   
    17     6     8 1   
    18     8    18 1   
    19     9    20 1   
    20    10    11 1   
    21    10    18 1   
    22    11    12 1   
    23    11    32 1   
    24    12    33 1   
    25    12    34 1   
    26    12    35 1   
    27    13    14 ar  
    28    13    36 1   
    29    14    15 ar  
    30    14    37 1   
    31    15    16 ar  
    32    15    38 1   
    33    16    17 ar  
    34    16    39 1   
    35    17    40 1   
    36    18    19 2   
    37    20    21 2   
    38    20    22 1   
    39    22    23 1   
    40    22    41 1   
    41    23    24 1   
    42    23    25 1   
    43    23    42 1   
    44    24    25 1   
    45    24    43 1   
    46    24    44 1   
    47    25    45 1   
    48    25    46 1   
@<TRIPOS>SUBSTRUCTURE
     1 ULH         1 TEMP              0 ****  ****    0 ROOT
