@<TRIPOS>MOLECULE
ULI
  122   121     1     0     0
SMALL
No Charge or Current Charge


@<TRIPOS>ATOM
      1 CAA         25.1180     0.3750    -0.0780 c3         1 ULI      -0.088100
      2 CAB         23.8310    -0.4660     0.0260 c3         1 ULI      -0.074900
      3 CAC         22.5440     0.3830    -0.0690 c3         1 ULI      -0.075400
      4 CAD         21.2550    -0.4610     0.0350 c3         1 ULI      -0.074400
      5 CAE         19.9680     0.3880    -0.0600 c3         1 ULI      -0.074400
      6 CAF         18.6780    -0.4550     0.0440 c3         1 ULI      -0.074400
      7 CAG         17.3920     0.3940    -0.0520 c3         1 ULI      -0.074400
      8 CAH         16.1020    -0.4490     0.0520 c3         1 ULI      -0.074400
      9 CAI         14.8160     0.4000    -0.0440 c3         1 ULI      -0.074400
     10 CAJ         13.5260    -0.4430     0.0600 c3         1 ULI      -0.074400
     11 CAK         12.2390     0.4060    -0.0370 c3         1 ULI      -0.074400
     12 CAL         10.9500    -0.4380     0.0660 c3         1 ULI      -0.074400
     13 CAM          9.6630     0.4110    -0.0320 c3         1 ULI      -0.074400
     14 CAN          8.3730    -0.4330     0.0700 c3         1 ULI      -0.074400
     15 CAO          7.0870     0.4160    -0.0290 c3         1 ULI      -0.074400
     16 CAP          5.7970    -0.4280     0.0730 c3         1 ULI      -0.074400
     17 CAQ          4.5110     0.4200    -0.0280 c3         1 ULI      -0.074400
     18 CAR          3.2210    -0.4240     0.0730 c3         1 ULI      -0.074400
     19 CAS          1.9340     0.4240    -0.0280 c3         1 ULI      -0.074400
     20 CAT          0.6450    -0.4200     0.0720 c3         1 ULI      -0.074400
     21 CAU         -0.6420     0.4280    -0.0310 c3         1 ULI      -0.074400
     22 CAV         -1.9310    -0.4170     0.0680 c3         1 ULI      -0.074400
     23 CAW         -3.2180     0.4310    -0.0350 c3         1 ULI      -0.074400
     24 CAX        -23.8290     0.4430    -0.0880 c3         1 ULI      -0.074900
     25 CAY        -22.5410    -0.4030     0.0160 c3         1 ULI      -0.075400
     26 CAZ        -21.2520     0.4420    -0.0810 c3         1 ULI      -0.074400
     27 CBA        -19.9650    -0.4050     0.0230 c3         1 ULI      -0.074400
     28 CBB        -18.6760     0.4410    -0.0740 c3         1 ULI      -0.074400
     29 CBC        -17.3890    -0.4060     0.0310 c3         1 ULI      -0.074400
     30 CBD        -16.1000     0.4400    -0.0660 c3         1 ULI      -0.074400
     31 CBE        -14.8120    -0.4070     0.0380 c3         1 ULI      -0.074400
     32 CBF        -13.5240     0.4380    -0.0590 c3         1 ULI      -0.074400
     33 CBG        -12.2360    -0.4080     0.0450 c3         1 ULI      -0.074400
     34 CBH        -10.9470     0.4370    -0.0520 c3         1 ULI      -0.074400
     35 CBI         -9.6600    -0.4100     0.0520 c3         1 ULI      -0.074400
     36 CBJ         -8.3710     0.4350    -0.0460 c3         1 ULI      -0.074400
     37 CBK         -7.0840    -0.4120     0.0580 c3         1 ULI      -0.074400
     38 CBL         -5.7950     0.4330    -0.0400 c3         1 ULI      -0.074400
     39 CBM         -4.5080    -0.4140     0.0640 c3         1 ULI      -0.074400
     40 HAA         25.1650     1.1140     0.7310 hc         1 ULI       0.031367
     41 HAAA        26.0020    -0.2690    -0.0060 hc         1 ULI       0.031367
     42 HAAB        25.1580     0.9060    -1.0370 hc         1 ULI       0.031367
     43 HAB         23.8310    -1.2180    -0.7740 hc         1 ULI       0.036700
     44 HABA        23.8380    -1.0110     0.9780 hc         1 ULI       0.036700
     45 HAC         22.5490     1.1340     0.7300 hc         1 ULI       0.036700
     46 HACA        22.5420     0.9280    -1.0220 hc         1 ULI       0.036700
     47 HAD         21.2500    -1.2120    -0.7650 hc         1 ULI       0.036700
     48 HADA        21.2570    -1.0060     0.9870 hc         1 ULI       0.036700
     49 HAE         19.9730     1.1400     0.7390 hc         1 ULI       0.036700
     50 HAEA        19.9660     0.9340    -1.0130 hc         1 ULI       0.036700
     51 HAF         18.6740    -1.2060    -0.7560 hc         1 ULI       0.036700
     52 HAFA        18.6800    -1.0000     0.9960 hc         1 ULI       0.036700
     53 HAG         17.3960     1.1460     0.7480 hc         1 ULI       0.036700
     54 HAGA        17.3900     0.9390    -1.0040 hc         1 ULI       0.036700
     55 HAH         16.0980    -1.2010    -0.7470 hc         1 ULI       0.036950
     56 HAHA        16.1040    -0.9940     1.0050 hc         1 ULI       0.036950
     57 HAI         14.8200     1.1520     0.7560 hc         1 ULI       0.036700
     58 HAIA        14.8140     0.9450    -0.9960 hc         1 ULI       0.036700
     59 HAJ         13.5220    -1.1950    -0.7390 hc         1 ULI       0.036950
     60 HAJA        13.5270    -0.9880     1.0120 hc         1 ULI       0.036950
     61 HAK         12.2430     1.1570     0.7620 hc         1 ULI       0.036700
     62 HAKA        12.2380     0.9500    -0.9900 hc         1 ULI       0.036700
     63 HAL         10.9470    -1.1900    -0.7330 hc         1 ULI       0.036950
     64 HALA        10.9500    -0.9820     1.0190 hc         1 ULI       0.036950
     65 HAM          9.6660     1.1630     0.7670 hc         1 ULI       0.037200
     66 HAMA         9.6630     0.9560    -0.9840 hc         1 ULI       0.037200
     67 HAN          8.3710    -1.1850    -0.7290 hc         1 ULI       0.036950
     68 HANA         8.3740    -0.9770     1.0230 hc         1 ULI       0.036950
     69 HAO          7.0890     1.1680     0.7700 hc         1 ULI       0.036700
     70 HAOA         7.0870     0.9600    -0.9810 hc         1 ULI       0.036700
     71 HAP          5.7960    -1.1800    -0.7260 hc         1 ULI       0.036700
     72 HAPA         5.7970    -0.9720     1.0260 hc         1 ULI       0.036700
     73 HAQ          4.5120     1.1730     0.7710 hc         1 ULI       0.036950
     74 HAQA         4.5110     0.9650    -0.9800 hc         1 ULI       0.036950
     75 HAR          3.2200    -1.1760    -0.7250 hc         1 ULI       0.036950
     76 HARA         3.2200    -0.9670     1.0260 hc         1 ULI       0.036950
     77 HAS          1.9350     1.1770     0.7710 hc         1 ULI       0.036950
     78 HASA         1.9360     0.9680    -0.9810 hc         1 ULI       0.036950
     79 HAT          0.6450    -1.1730    -0.7270 hc         1 ULI       0.036700
     80 HATA         0.6430    -0.9640     1.0250 hc         1 ULI       0.036700
     81 HAU         -0.6420     1.1800     0.7680 hc         1 ULI       0.036700
     82 HAUA        -0.6400     0.9720    -0.9830 hc         1 ULI       0.036700
     83 HAV         -1.9310    -1.1690    -0.7300 hc         1 ULI       0.036950
     84 HAVA        -1.9330    -0.9600     1.0220 hc         1 ULI       0.036950
     85 HAW         -3.2190     1.1830     0.7640 hc         1 ULI       0.036950
     86 HAWA        -3.2160     0.9750    -0.9870 hc         1 ULI       0.036950
     87 HAX        -23.8350     1.1960     0.7100 hc         1 ULI       0.036700
     88 HAXA       -23.8300     0.9870    -1.0410 hc         1 ULI       0.036700
     89 HAY        -22.5440    -0.9470     0.9690 hc         1 ULI       0.036700
     90 HAZ        -21.2490     0.9860    -1.0340 hc         1 ULI       0.036700
     91 HAZA       -21.2540     1.1950     0.7170 hc         1 ULI       0.036700
     92 HBA        -19.9680    -0.9480     0.9760 hc         1 ULI       0.036700
     93 HBAA       -19.9630    -1.1570    -0.7750 hc         1 ULI       0.036700
     94 HBB        -18.6730     0.9840    -1.0270 hc         1 ULI       0.036700
     95 HBBA       -18.6780     1.1930     0.7250 hc         1 ULI       0.036700
     96 HBC        -17.3920    -0.9500     0.9840 hc         1 ULI       0.036700
     97 HBCA       -17.3870    -1.1580    -0.7680 hc         1 ULI       0.036700
     98 HBD        -16.0970     0.9830    -1.0190 hc         1 ULI       0.036950
     99 HBDA       -16.1020     1.1920     0.7320 hc         1 ULI       0.036950
    100 HBE        -14.8150    -0.9510     0.9910 hc         1 ULI       0.036700
    101 HBEA       -14.8110    -1.1600    -0.7600 hc         1 ULI       0.036700
    102 HBF        -13.5210     0.9820    -1.0120 hc         1 ULI       0.036950
    103 HBFA       -13.5250     1.1910     0.7390 hc         1 ULI       0.036950
    104 HBG        -12.2390    -0.9520     0.9990 hc         1 ULI       0.036700
    105 HBGA       -12.2340    -1.1610    -0.7530 hc         1 ULI       0.036700
    106 HBH        -10.9440     0.9810    -1.0050 hc         1 ULI       0.036950
    107 HBHA       -10.9490     1.1890     0.7460 hc         1 ULI       0.036950
    108 HBI         -9.6630    -0.9540     1.0050 hc         1 ULI       0.037200
    109 HBIA        -9.6580    -1.1630    -0.7460 hc         1 ULI       0.037200
    110 HBJ         -8.3680     0.9790    -0.9990 hc         1 ULI       0.036950
    111 HBJA        -8.3720     1.1880     0.7530 hc         1 ULI       0.036950
    112 HBK         -7.0860    -0.9560     1.0110 hc         1 ULI       0.036700
    113 HBKA        -7.0820    -1.1650    -0.7400 hc         1 ULI       0.036700
    114 HBL         -5.7920     0.9770    -0.9930 hc         1 ULI       0.036700
    115 HBLA        -5.7960     1.1860     0.7590 hc         1 ULI       0.036700
    116 HBM         -4.5070    -1.1670    -0.7350 hc         1 ULI       0.036950
    117 HBMA        -4.5100    -0.9580     1.0170 hc         1 ULI       0.036950
    118 C40        -25.1150    -0.4000     0.0090 c3         1 ULI      -0.088100
    119 H79        -22.5390    -1.1560    -0.7820 hc         1 ULI       0.036700
    120 H80        -25.1600    -0.9300     0.9680 hc         1 ULI       0.031367
    121 H81        -26.0000     0.2420    -0.0700 hc         1 ULI       0.031367
    122 H82        -25.1550    -1.1410    -0.7990 hc         1 ULI       0.031367
@<TRIPOS>BOND
     1     1     2 1   
     2     1    40 1   
     3     1    41 1   
     4     1    42 1   
     5     2     3 1   
     6     2    43 1   
     7     2    44 1   
     8     3     4 1   
     9     3    45 1   
    10     3    46 1   
    11     4     5 1   
    12     4    47 1   
    13     4    48 1   
    14     5     6 1   
    15     5    49 1   
    16     5    50 1   
    17     6     7 1   
    18     6    51 1   
    19     6    52 1   
    20     7     8 1   
    21     7    53 1   
    22     7    54 1   
    23     8     9 1   
    24     8    55 1   
    25     8    56 1   
    26     9    10 1   
    27     9    57 1   
    28     9    58 1   
    29    10    11 1   
    30    10    59 1   
    31    10    60 1   
    32    11    12 1   
    33    11    61 1   
    34    11    62 1   
    35    12    13 1   
    36    12    63 1   
    37    12    64 1   
    38    13    14 1   
    39    13    65 1   
    40    13    66 1   
    41    14    15 1   
    42    14    67 1   
    43    14    68 1   
    44    15    16 1   
    45    15    69 1   
    46    15    70 1   
    47    16    17 1   
    48    16    71 1   
    49    16    72 1   
    50    17    18 1   
    51    17    73 1   
    52    17    74 1   
    53    18    19 1   
    54    18    75 1   
    55    18    76 1   
    56    19    20 1   
    57    19    77 1   
    58    19    78 1   
    59    20    21 1   
    60    20    79 1   
    61    20    80 1   
    62    21    22 1   
    63    21    81 1   
    64    21    82 1   
    65    22    23 1   
    66    22    83 1   
    67    22    84 1   
    68    23    39 1   
    69    23    85 1   
    70    23    86 1   
    71    24    25 1   
    72    24    87 1   
    73    24    88 1   
    74    24   118 1   
    75    25    26 1   
    76    25    89 1   
    77    25   119 1   
    78    26    27 1   
    79    26    90 1   
    80    26    91 1   
    81    27    28 1   
    82    27    92 1   
    83    27    93 1   
    84    28    29 1   
    85    28    94 1   
    86    28    95 1   
    87    29    30 1   
    88    29    96 1   
    89    29    97 1   
    90    30    31 1   
    91    30    98 1   
    92    30    99 1   
    93    31    32 1   
    94    31   100 1   
    95    31   101 1   
    96    32    33 1   
    97    32   102 1   
    98    32   103 1   
    99    33    34 1   
   100    33   104 1   
   101    33   105 1   
   102    34    35 1   
   103    34   106 1   
   104    34   107 1   
   105    35    36 1   
   106    35   108 1   
   107    35   109 1   
   108    36    37 1   
   109    36   110 1   
   110    36   111 1   
   111    37    38 1   
   112    37   112 1   
   113    37   113 1   
   114    38    39 1   
   115    38   114 1   
   116    38   115 1   
   117    39   116 1   
   118    39   117 1   
   119   118   120 1   
   120   118   121 1   
   121   118   122 1   
@<TRIPOS>SUBSTRUCTURE
     1 ULI         1 TEMP              0 ****  ****    0 ROOT
