@<TRIPOS>MOLECULE
ULI
  122   121     1     0     0
SMALL
bcc


@<TRIPOS>ATOM
      1 CAA         24.8070     0.3960    -0.0480 c3         1 ULI      -0.088100
      2 CAB         23.5480    -0.4590     0.0220 c3         1 ULI      -0.074900
      3 CAC         22.2700     0.3690    -0.0410 c3         1 ULI      -0.075400
      4 CAD         21.0000    -0.4700     0.0270 c3         1 ULI      -0.074400
      5 CAE         19.7260     0.3610    -0.0540 c3         1 ULI      -0.074400
      6 CAF         18.4540    -0.4730     0.0270 c3         1 ULI      -0.074400
      7 CAG         17.1820     0.3610    -0.0610 c3         1 ULI      -0.074400
      8 CAH         15.9080    -0.4680     0.0380 c3         1 ULI      -0.074400
      9 CAI         14.6380     0.3660    -0.0690 c3         1 ULI      -0.074400
     10 CAJ         13.3620    -0.4590     0.0460 c3         1 ULI      -0.074400
     11 CAK         12.0930     0.3770    -0.0710 c3         1 ULI      -0.074400
     12 CAL         10.8160    -0.4450     0.0600 c3         1 ULI      -0.074400
     13 CAM          9.5480     0.3890    -0.0720 c3         1 ULI      -0.074400
     14 CAN          8.2710    -0.4300     0.0730 c3         1 ULI      -0.074400
     15 CAO          7.0030     0.4020    -0.0690 c3         1 ULI      -0.074400
     16 CAP          5.7260    -0.4160     0.0820 c3         1 ULI      -0.074400
     17 CAQ          4.4570     0.4140    -0.0620 c3         1 ULI      -0.074400
     18 CAR          3.1810    -0.4040     0.0900 c3         1 ULI      -0.074400
     19 CAS          1.9120     0.4260    -0.0540 c3         1 ULI      -0.074400
     20 CAT          0.6360    -0.3930     0.0960 c3         1 ULI      -0.074400
     21 CAU         -0.6340     0.4360    -0.0470 c3         1 ULI      -0.074400
     22 CAV         -1.9090    -0.3840     0.1020 c3         1 ULI      -0.074400
     23 CAW         -3.1790     0.4450    -0.0400 c3         1 ULI      -0.074400
     24 CAX        -23.5490     0.3880    -0.0800 c3         1 ULI      -0.074900
     25 CAY        -22.2640    -0.4320    -0.0520 c3         1 ULI      -0.075400
     26 CAZ        -21.0010     0.4200    -0.0550 c3         1 ULI      -0.074400
     27 CBA        -19.7210    -0.4050    -0.0140 c3         1 ULI      -0.074400
     28 CBB        -18.4540     0.4420    -0.0360 c3         1 ULI      -0.074400
     29 CBC        -17.1770    -0.3860     0.0250 c3         1 ULI      -0.074400
     30 CBD        -15.9080     0.4560    -0.0180 c3         1 ULI      -0.074400
     31 CBE        -14.6330    -0.3760     0.0460 c3         1 ULI      -0.074400
     32 CBF        -13.3610     0.4610    -0.0200 c3         1 ULI      -0.074400
     33 CBG        -12.0880    -0.3710     0.0710 c3         1 ULI      -0.074400
     34 CBH        -10.8150     0.4610    -0.0240 c3         1 ULI      -0.074400
     35 CBI         -9.5430    -0.3700     0.0910 c3         1 ULI      -0.074400
     36 CBJ         -8.2700     0.4570    -0.0300 c3         1 ULI      -0.074400
     37 CBK         -6.9990    -0.3720     0.1010 c3         1 ULI      -0.074400
     38 CBL         -5.7240     0.4520    -0.0330 c3         1 ULI      -0.074400
     39 CBM         -4.4540    -0.3770     0.1050 c3         1 ULI      -0.074400
     40 HAA         24.8470     1.1050     0.7810 hc         1 ULI       0.031367
     41 HAAA        25.7110    -0.2130    -0.0060 hc         1 ULI       0.031367
     42 HAAB        24.8390     0.9720    -0.9750 hc         1 ULI       0.031367
     43 HAB         23.5500    -1.1840    -0.7970 hc         1 ULI       0.036700
     44 HABA        23.5530    -1.0460     0.9460 hc         1 ULI       0.036700
     45 HAC         22.2690     1.0960     0.7790 hc         1 ULI       0.036700
     46 HACA        22.2670     0.9580    -0.9660 hc         1 ULI       0.036700
     47 HAD         21.0060    -1.2050    -0.7860 hc         1 ULI       0.036700
     48 HADA        20.9980    -1.0490     0.9580 hc         1 ULI       0.036700
     49 HAE         19.7250     1.1030     0.7530 hc         1 ULI       0.036700
     50 HAEA        19.7260     0.9330    -0.9890 hc         1 ULI       0.036700
     51 HAF         18.4560    -1.2170    -0.7770 hc         1 ULI       0.036700
     52 HAFA        18.4520    -1.0410     0.9650 hc         1 ULI       0.036700
     53 HAG         17.1860     1.1140     0.7350 hc         1 ULI       0.036700
     54 HAGA        17.1800     0.9190    -1.0040 hc         1 ULI       0.036700
     55 HAH         15.9080    -1.2300    -0.7490 hc         1 ULI       0.036950
     56 HAHA        15.9050    -1.0150     0.9880 hc         1 ULI       0.036950
     57 HAI         14.6420     1.1360     0.7120 hc         1 ULI       0.036700
     58 HAIA        14.6370     0.9050    -1.0230 hc         1 ULI       0.036700
     59 HAJ         13.3590    -1.2320    -0.7300 hc         1 ULI       0.036950
     60 HAJA        13.3600    -0.9910     1.0040 hc         1 ULI       0.036950
     61 HAK         12.1010     1.1580     0.6970 hc         1 ULI       0.036700
     62 HAKA        12.0910     0.9000    -1.0340 hc         1 ULI       0.036700
     63 HAL         10.8130    -1.2340    -0.7000 hc         1 ULI       0.036950
     64 HALA        10.8140    -0.9590     1.0280 hc         1 ULI       0.036950
     65 HAM          9.5560     1.1840     0.6810 hc         1 ULI       0.037200
     66 HAMA         9.5460     0.8940    -1.0440 hc         1 ULI       0.037200
     67 HAN          8.2660    -1.2300    -0.6760 hc         1 ULI       0.036950
     68 HANA         8.2700    -0.9300     1.0480 hc         1 ULI       0.036950
     69 HAO          7.0100     1.2040     0.6770 hc         1 ULI       0.036700
     70 HAOA         7.0020     0.8980    -1.0460 hc         1 ULI       0.036700
     71 HAP          5.7200    -1.2200    -0.6630 hc         1 ULI       0.036700
     72 HAPA         5.7270    -0.9120     1.0590 hc         1 ULI       0.036700
     73 HAQ          4.4630     1.2190     0.6820 hc         1 ULI       0.036950
     74 HAQA         4.4570     0.9090    -1.0410 hc         1 ULI       0.036950
     75 HAR          3.1750    -1.2080    -0.6550 hc         1 ULI       0.036950
     76 HARA         3.1820    -0.8990     1.0680 hc         1 ULI       0.036950
     77 HAS          1.9170     1.2290     0.6920 hc         1 ULI       0.036950
     78 HASA         1.9110     0.9220    -1.0310 hc         1 ULI       0.036950
     79 HAT          0.6310    -1.1960    -0.6510 hc         1 ULI       0.036700
     80 HATA         0.6370    -0.8900     1.0730 hc         1 ULI       0.036700
     81 HAU         -0.6290     1.2380     0.6990 hc         1 ULI       0.036700
     82 HAUA        -0.6340     0.9330    -1.0240 hc         1 ULI       0.036700
     83 HAV         -1.9130    -1.1850    -0.6460 hc         1 ULI       0.036950
     84 HAVA        -1.9070    -0.8830     1.0770 hc         1 ULI       0.036950
     85 HAW         -3.1760     1.2440     0.7100 hc         1 ULI       0.036950
     86 HAWA        -3.1790     0.9460    -1.0140 hc         1 ULI       0.036950
     87 HAX        -23.5690     1.0580     0.7860 hc         1 ULI       0.036700
     88 HAXA       -23.5460     1.0350    -0.9630 hc         1 ULI       0.036700
     89 HAY        -22.2660    -1.0760     0.8350 hc         1 ULI       0.036700
     90 HAZ        -20.9950     1.0570    -0.9470 hc         1 ULI       0.036700
     91 HAZA       -21.0210     1.1020     0.8030 hc         1 ULI       0.036700
     92 HBA        -19.7230    -1.0320     0.8850 hc         1 ULI       0.036700
     93 HBAA       -19.7080    -1.0970    -0.8640 hc         1 ULI       0.036700
     94 HBB        -18.4460     1.0570    -0.9430 hc         1 ULI       0.036700
     95 HBBA       -18.4720     1.1450     0.8050 hc         1 ULI       0.036700
     96 HBC        -17.1810    -0.9900     0.9390 hc         1 ULI       0.036700
     97 HBCA       -17.1670    -1.0990    -0.8070 hc         1 ULI       0.036700
     98 HBD        -15.9030     1.0580    -0.9330 hc         1 ULI       0.036950
     99 HBDA       -15.9170     1.1690     0.8140 hc         1 ULI       0.036950
    100 HBE        -14.6320    -0.9660     0.9700 hc         1 ULI       0.036700
    101 HBEA       -14.6310    -1.1020    -0.7750 hc         1 ULI       0.036700
    102 HBF        -13.3540     1.0350    -0.9530 hc         1 ULI       0.036950
    103 HBFA       -13.3700     1.2000     0.7890 hc         1 ULI       0.036950
    104 HBG        -12.0880    -0.9290     1.0140 hc         1 ULI       0.036700
    105 HBGA       -12.0890    -1.1240    -0.7250 hc         1 ULI       0.036700
    106 HBH        -10.8090     1.0050    -0.9760 hc         1 ULI       0.036950
    107 HBHA       -10.8210     1.2260     0.7600 hc         1 ULI       0.036950
    108 HBI         -9.5430    -0.8990     1.0510 hc         1 ULI       0.037200
    109 HBIA        -9.5460    -1.1470    -0.6810 hc         1 ULI       0.037200
    110 HBJ         -8.2660     0.9770    -0.9950 hc         1 ULI       0.036950
    111 HBJA        -8.2710     1.2420     0.7350 hc         1 ULI       0.036950
    112 HBK         -6.9990    -0.8850     1.0700 hc         1 ULI       0.036700
    113 HBKA        -7.0010    -1.1620    -0.6580 hc         1 ULI       0.036700
    114 HBL         -5.7220     0.9600    -1.0040 hc         1 ULI       0.036700
    115 HBLA        -5.7240     1.2460     0.7220 hc         1 ULI       0.036700
    116 HBM         -4.4580    -1.1750    -0.6470 hc         1 ULI       0.036950
    117 HBMA        -4.4530    -0.8800     1.0790 hc         1 ULI       0.036950
    118 C40        -24.8000    -0.4800    -0.0840 c3         1 ULI      -0.088100
    119 H79        -22.2480    -1.1070    -0.9150 hc         1 ULI       0.036700
    120 H80        -24.8400    -1.1140     0.8040 hc         1 ULI       0.031367
    121 H81        -25.7100     0.1210    -0.1010 hc         1 ULI       0.031367
    122 H82        -24.8200    -1.1350    -0.9570 hc         1 ULI       0.031367
@<TRIPOS>BOND
     1     1     2 1   
     2     1    40 1   
     3     1    41 1   
     4     1    42 1   
     5     2     3 1   
     6     2    43 1   
     7     2    44 1   
     8     3     4 1   
     9     3    45 1   
    10     3    46 1   
    11     4     5 1   
    12     4    47 1   
    13     4    48 1   
    14     5     6 1   
    15     5    49 1   
    16     5    50 1   
    17     6     7 1   
    18     6    51 1   
    19     6    52 1   
    20     7     8 1   
    21     7    53 1   
    22     7    54 1   
    23     8     9 1   
    24     8    55 1   
    25     8    56 1   
    26     9    10 1   
    27     9    57 1   
    28     9    58 1   
    29    10    11 1   
    30    10    59 1   
    31    10    60 1   
    32    11    12 1   
    33    11    61 1   
    34    11    62 1   
    35    12    13 1   
    36    12    63 1   
    37    12    64 1   
    38    13    14 1   
    39    13    65 1   
    40    13    66 1   
    41    14    15 1   
    42    14    67 1   
    43    14    68 1   
    44    15    16 1   
    45    15    69 1   
    46    15    70 1   
    47    16    17 1   
    48    16    71 1   
    49    16    72 1   
    50    17    18 1   
    51    17    73 1   
    52    17    74 1   
    53    18    19 1   
    54    18    75 1   
    55    18    76 1   
    56    19    20 1   
    57    19    77 1   
    58    19    78 1   
    59    20    21 1   
    60    20    79 1   
    61    20    80 1   
    62    21    22 1   
    63    21    81 1   
    64    21    82 1   
    65    22    23 1   
    66    22    83 1   
    67    22    84 1   
    68    23    39 1   
    69    23    85 1   
    70    23    86 1   
    71    24    25 1   
    72    24    87 1   
    73    24    88 1   
    74    24   118 1   
    75    25    26 1   
    76    25    89 1   
    77    25   119 1   
    78    26    27 1   
    79    26    90 1   
    80    26    91 1   
    81    27    28 1   
    82    27    92 1   
    83    27    93 1   
    84    28    29 1   
    85    28    94 1   
    86    28    95 1   
    87    29    30 1   
    88    29    96 1   
    89    29    97 1   
    90    30    31 1   
    91    30    98 1   
    92    30    99 1   
    93    31    32 1   
    94    31   100 1   
    95    31   101 1   
    96    32    33 1   
    97    32   102 1   
    98    32   103 1   
    99    33    34 1   
   100    33   104 1   
   101    33   105 1   
   102    34    35 1   
   103    34   106 1   
   104    34   107 1   
   105    35    36 1   
   106    35   108 1   
   107    35   109 1   
   108    36    37 1   
   109    36   110 1   
   110    36   111 1   
   111    37    38 1   
   112    37   112 1   
   113    37   113 1   
   114    38    39 1   
   115    38   114 1   
   116    38   115 1   
   117    39   116 1   
   118    39   117 1   
   119   118   120 1   
   120   118   121 1   
   121   118   122 1   
@<TRIPOS>SUBSTRUCTURE
     1 ULI         1 TEMP              0 ****  ****    0 ROOT
