@<TRIPOS>MOLECULE
ULJ
   45    47     1     0     0
SMALL
abcg2


@<TRIPOS>ATOM
      1 C1         144.6700   147.6280   184.7840 c3         1 ULJ       0.148900
      2 C13        148.1340   144.1070   192.3820 cc         1 ULJ       0.307000
      3 C17        149.1520   142.8900   194.3370 c3         1 ULJ       0.140900
      4 C18        147.9670   142.4970   195.1890 ca         1 ULJ      -0.147300
      5 C20        145.7820   141.4780   195.4830 ca         1 ULJ      -0.093000
      6 C23        147.9710   142.7570   196.5520 ca         1 ULJ       0.171000
      7 C28        147.6690   141.3080   185.6880 c3         1 ULJ       0.155900
      8 C4         145.8270   145.0690   185.0410 ca         1 ULJ      -0.189000
      9 C6         146.9050   143.4400   186.4690 ca         1 ULJ       0.052100
     10 C7         146.8050   144.3360   187.5590 ca         1 ULJ      -0.004000
     11 N9         147.3270   143.8850   188.7750 ns         1 ULJ      -0.119000
     12 O11        146.8740   145.6170   190.2240 o          1 ULJ      -0.632100
     13 C10        147.3480   144.5000   189.9890 c          1 ULJ       0.564600
     14 C12        147.9900   143.7260   191.0460 cd         1 ULJ       0.037500
     15 C19        146.8480   141.8490   194.6720 ca         1 ULJ      -0.059000
     16 C21        145.8420   141.7620   196.8400 ca         1 ULJ       0.016100
     17 C22        146.9350   142.4070   197.3990 ca         1 ULJ      -0.122000
     18 C3         145.7290   145.9450   186.1120 ca         1 ULJ       0.132100
     19 C5         146.4200   143.8150   185.2300 ca         1 ULJ      -0.130000
     20 C8         146.2170   145.5790   187.3700 ca         1 ULJ      -0.146000
     21 F24        149.0430   143.3860   197.0890 f          1 ULJ      -0.181000
     22 N14        148.8000   143.0760   192.9460 na         1 ULJ       0.037800
     23 N15        149.0510   142.0970   192.0160 nc         1 ULJ      -0.197800
     24 N16        148.5670   142.5010   190.8940 nd         1 ULJ      -0.310000
     25 O2         145.1740   147.1920   186.0430 os         1 ULJ      -0.346100
     26 BR25       144.3880   141.2580   197.9720 br         1 ULJ      -0.086100
     27 H31        144.2890   148.6330   184.9450 h1         1 ULJ       0.039700
     28 H30        145.4620   147.6520   184.0300 h1         1 ULJ       0.039700
     29 H29        143.8610   146.9800   184.4370 h1         1 ULJ       0.039700
     30 H37        149.9200   142.1170   194.3620 h1         1 ULJ       0.084200
     31 H36        149.6060   143.8070   194.7120 h1         1 ULJ       0.084200
     32 H39        144.9230   140.9770   195.0610 ha         1 ULJ       0.142000
     33 H43        148.1680   140.4460   186.1250 h1         1 ULJ       0.041033
     34 H45        146.7040   141.0050   185.2740 h1         1 ULJ       0.041033
     35 H44        148.2900   141.7320   184.8950 h1         1 ULJ       0.041033
     36 H32        145.4590   145.3300   184.0610 ha         1 ULJ       0.117000
     37 H35        147.7490   142.9660   188.7420 hn         1 ULJ       0.192000
     38 H38        146.8010   141.6310   193.6130 ha         1 ULJ       0.138000
     39 H40        146.9950   142.6370   198.4530 ha         1 ULJ       0.151000
     40 H33        146.4920   143.1410   184.3900 ha         1 ULJ       0.116000
     41 H34        146.1360   146.2680   188.1940 ha         1 ULJ       0.163000
     42 H41        148.1170   145.4560   193.9140 hn         1 ULJ       0.501500
     43 H42        147.3750   145.9520   192.4490 hn         1 ULJ       0.501500
     44 O27        147.4960   142.2410   186.7520 os         1 ULJ      -0.365100
     45 N26        147.6840   145.1950   193.0420 nv         1 ULJ      -1.070000
@<TRIPOS>BOND
     1     1    25 1   
     2     1    27 1   
     3     1    28 1   
     4     1    29 1   
     5     2    14 2   
     6     2    22 1   
     7     2    45 1   
     8     3     4 1   
     9     3    22 1   
    10     3    30 1   
    11     3    31 1   
    12     4     6 ar  
    13     4    15 ar  
    14     5    15 ar  
    15     5    16 ar  
    16     5    32 1   
    17     6    17 ar  
    18     6    21 1   
    19     7    33 1   
    20     7    34 1   
    21     7    35 1   
    22     7    44 1   
    23     8    18 ar  
    24     8    19 ar  
    25     8    36 1   
    26     9    10 ar  
    27     9    19 ar  
    28     9    44 1   
    29    10    11 1   
    30    10    20 ar  
    31    11    13 1   
    32    11    37 1   
    33    12    13 2   
    34    13    14 1   
    35    14    24 1   
    36    15    38 1   
    37    16    17 ar  
    38    16    26 1   
    39    17    39 1   
    40    18    20 ar  
    41    18    25 1   
    42    19    40 1   
    43    20    41 1   
    44    22    23 1   
    45    23    24 2   
    46    42    45 1   
    47    43    45 1   
@<TRIPOS>SUBSTRUCTURE
     1 ULJ         1 TEMP              0 ****  ****    0 ROOT
