@<TRIPOS>MOLECULE
ULJ
   45    47     1     0     0
SMALL
No Charge or Current Charge


@<TRIPOS>ATOM
      1 C1         144.6220   147.7340   184.6180 c3         1 ULJ       0.148900
      2 C13        148.0820   144.0090   192.3500 cc         1 ULJ       0.307000
      3 C17        149.1230   142.7260   194.3110 c3         1 ULJ       0.140900
      4 C18        147.9870   142.4180   195.2950 ca         1 ULJ      -0.147300
      5 C20        145.8120   141.4190   195.8020 ca         1 ULJ      -0.093000
      6 C23        148.0840   142.8350   196.6400 ca         1 ULJ       0.171000
      7 C28        147.7770   141.3190   185.5840 c3         1 ULJ       0.155900
      8 C4         145.8820   145.1330   184.9230 ca         1 ULJ      -0.189000
      9 C6         146.9590   143.5100   186.3980 ca         1 ULJ       0.052100
     10 C7         146.8040   144.3930   187.4900 ca         1 ULJ      -0.004000
     11 N9         147.2890   143.9630   188.7580 ns         1 ULJ      -0.119000
     12 O11        146.8390   145.6650   190.2630 o          1 ULJ      -0.632100
     13 C10        147.3000   144.5520   190.0150 c          1 ULJ       0.564600
     14 C12        147.9380   143.6630   191.0290 cd         1 ULJ       0.037500
     15 C19        146.8410   141.6980   194.8850 ca         1 ULJ      -0.059000
     16 C21        145.9190   141.8500   197.1340 ca         1 ULJ       0.016100
     17 C22        147.0560   142.5570   197.5540 ca         1 ULJ      -0.122000
     18 C3         145.7240   146.0180   186.0090 ca         1 ULJ       0.132100
     19 C5         146.4970   143.8850   185.1170 ca         1 ULJ      -0.130000
     20 C8         146.1830   145.6460   187.2820 ca         1 ULJ      -0.146000
     21 F24        149.1730   143.5120   197.0670 f          1 ULJ      -0.181000
     22 N14        148.7000   142.9120   192.9110 na         1 ULJ       0.037800
     23 N15        148.9320   141.9410   191.9800 nc         1 ULJ      -0.197800
     24 N16        148.4700   142.3920   190.8440 nd         1 ULJ      -0.310000
     25 O2         145.1280   147.2550   185.8770 os         1 ULJ      -0.346100
     26 Br25       144.5170   141.4690   198.3780 br         1 ULJ      -0.086100
     27 H31        144.1910   148.7360   184.7380 h1         1 ULJ       0.039700
     28 H30        145.4260   147.7970   183.8730 h1         1 ULJ       0.039700
     29 H29        143.8370   147.0700   184.2350 h1         1 ULJ       0.039700
     30 H37        149.8530   141.9080   194.3500 h1         1 ULJ       0.084200
     31 H36        149.6500   143.6370   194.6210 h1         1 ULJ       0.084200
     32 H39        144.9320   140.8670   195.4790 ha         1 ULJ       0.142000
     33 H43        148.2760   140.4280   185.9860 h1         1 ULJ       0.041033
     34 H45        146.8200   141.0040   185.1480 h1         1 ULJ       0.041033
     35 H44        148.4090   141.7310   184.7870 h1         1 ULJ       0.041033
     36 H32        145.5360   145.3940   183.9270 ha         1 ULJ       0.117000
     37 H35        147.7090   143.0420   188.7340 hn         1 ULJ       0.192000
     38 H38        146.7410   141.3450   193.8610 ha         1 ULJ       0.138000
     39 H40        147.1450   142.8880   198.5850 ha         1 ULJ       0.151000
     40 H33        146.6050   143.2230   184.2620 ha         1 ULJ       0.116000
     41 H34        146.0460   146.3500   188.0940 ha         1 ULJ       0.163000
     42 H41        147.6620   145.0960   194.0780 hn         1 ULJ       0.501500
     43 H42        147.1760   145.8520   192.5920 hn         1 ULJ       0.501500
     44 O27        147.5700   142.2890   186.6280 os         1 ULJ      -0.365100
     45 N26        147.7380   145.1390   193.0630 nv         1 ULJ      -1.070000
@<TRIPOS>BOND
     1     1    25 1   
     2     1    27 1   
     3     1    28 1   
     4     1    29 1   
     5     2    14 2   
     6     2    22 1   
     7     2    45 1   
     8     3     4 1   
     9     3    22 1   
    10     3    30 1   
    11     3    31 1   
    12     4     6 ar  
    13     4    15 ar  
    14     5    15 ar  
    15     5    16 ar  
    16     5    32 1   
    17     6    17 ar  
    18     6    21 1   
    19     7    33 1   
    20     7    34 1   
    21     7    35 1   
    22     7    44 1   
    23     8    18 ar  
    24     8    19 ar  
    25     8    36 1   
    26     9    10 ar  
    27     9    19 ar  
    28     9    44 1   
    29    10    11 1   
    30    10    20 ar  
    31    11    13 1   
    32    11    37 1   
    33    12    13 2   
    34    13    14 1   
    35    14    24 1   
    36    15    38 1   
    37    16    17 ar  
    38    16    26 1   
    39    17    39 1   
    40    18    20 ar  
    41    18    25 1   
    42    19    40 1   
    43    20    41 1   
    44    22    23 1   
    45    23    24 2   
    46    42    45 1   
    47    43    45 1   
@<TRIPOS>SUBSTRUCTURE
     1 ULJ         1 TEMP              0 ****  ****    0 ROOT
