@<TRIPOS>MOLECULE
ULK
   46    48     1     0     0
SMALL
No Charge or Current Charge


@<TRIPOS>ATOM
      1 C13         40.0900    18.6770    11.3580 ca         1 ULK      -0.145300
      2 C15         39.6360    18.6610    13.7590 ca         1 ULK      -0.114000
      3 C17         38.6170    16.9830    12.3240 ca         1 ULK      -0.114000
      4 C22         47.8580    16.5590     9.9440 cx         1 ULK       0.047700
      5 C24         48.6340    15.3470     9.4890 cx         1 ULK      -0.128700
      6 C01         40.0290    14.9010     5.5420 c3         1 ULK       0.096300
      7 N02         40.6600    15.7270     6.5730 ns         1 ULK      -0.485900
      8 O04         42.7400    14.8210     6.4420 o          1 ULK      -0.610100
      9 C05         42.4150    16.6100     8.0660 ca         1 ULK       0.286500
     10 C06         43.7510    16.6000     8.5260 ca         1 ULK      -0.091000
     11 C07         44.1580    17.4930     9.5460 ca         1 ULK      -0.121600
     12 C08         43.1770    18.3690    10.0590 ca         1 ULK      -0.091000
     13 C09         41.8620    18.3350     9.5590 ca         1 ULK       0.350300
     14 N10         41.4870    17.4670     8.5820 nb         1 ULK      -0.644000
     15 C11         40.7950    19.2910    10.1490 c3         1 ULK       0.178300
     16 O12         39.8060    19.7220     9.1910 oh         1 ULK      -0.632000
     17 C14         40.2760    19.2280    12.6430 ca         1 ULK      -0.089000
     18 C16         38.8060    17.5380    13.6010 ca         1 ULK      -0.099000
     19 C18         39.2560    17.5490    11.2080 ca         1 ULK      -0.089000
     20 O20         45.8980    18.3170    10.9780 o          1 ULK      -0.584100
     21 N21         46.4800    16.6560     9.5440 ns         1 ULK      -0.475900
     22 C23         48.2280    15.4840    10.9370 cx         1 ULK      -0.123400
     23 C25         50.0940    15.4690     9.0730 c3         1 ULK      -0.063100
     24 H1          39.7840    19.0910    14.7470 ha         1 ULK       0.115000
     25 H2          37.9750    16.1130    12.2000 ha         1 ULK       0.115000
     26 H3          48.3820    17.5160    10.0020 h1         1 ULK       0.093700
     27 H4          48.0980    14.6050     8.9020 hc         1 ULK       0.077700
     28 H5          38.9740    15.1860     5.4390 h1         1 ULK       0.040700
     29 H6          40.5410    15.0520     4.5830 h1         1 ULK       0.040700
     30 H7          40.0920    13.8430     5.8270 h1         1 ULK       0.040700
     31 H8          40.1080    16.4320     7.0550 hn         1 ULK       0.348500
     32 H9          44.4460    15.8950     8.0800 ha         1 ULK       0.150000
     33 H10         43.4250    19.0740    10.8480 ha         1 ULK       0.144000
     34 H11         41.3350    20.1810    10.4990 h1         1 ULK       0.045700
     35 H12         39.1070    20.1820     9.7040 ho         1 ULK       0.450000
     36 H13         40.9170    20.0970    12.7810 ha         1 ULK       0.120500
     37 H14         38.3120    17.1000    14.4650 ha         1 ULK       0.114000
     38 H15         39.1030    17.1090    10.2240 ha         1 ULK       0.120500
     39 H16         46.1400    16.0500     8.8110 hn         1 ULK       0.325500
     40 H17         47.4360    14.8360    11.3060 hc         1 ULK       0.080700
     41 H18         48.9990    15.7190    11.6670 hc         1 ULK       0.080700
     42 H19         50.6150    14.5130     9.1990 hc         1 ULK       0.040033
     43 H20         50.1740    15.7620     8.0190 hc         1 ULK       0.040033
     44 H21         50.6220    16.2220     9.6720 hc         1 ULK       0.040033
     45 C19         45.5710    17.5380    10.0920 c          1 ULK       0.614700
     46 C03         41.9830    15.6360     6.9620 c          1 ULK       0.504600
@<TRIPOS>BOND
     1     1    15 1   
     2     1    17 ar  
     3     1    19 ar  
     4     2    17 ar  
     5     2    18 ar  
     6     2    24 1   
     7     3    18 ar  
     8     3    19 ar  
     9     3    25 1   
    10     4     5 1   
    11     4    21 1   
    12     4    22 1   
    13     4    26 1   
    14     5    22 1   
    15     5    23 1   
    16     5    27 1   
    17     6     7 1   
    18     6    28 1   
    19     6    29 1   
    20     6    30 1   
    21     7    31 1   
    22     7    46 1   
    23     8    46 2   
    24     9    10 ar  
    25     9    14 ar  
    26     9    46 1   
    27    10    11 ar  
    28    10    32 1   
    29    11    12 ar  
    30    11    45 1   
    31    12    13 ar  
    32    12    33 1   
    33    13    14 ar  
    34    13    15 1   
    35    15    16 1   
    36    15    34 1   
    37    16    35 1   
    38    17    36 1   
    39    18    37 1   
    40    19    38 1   
    41    20    45 2   
    42    21    39 1   
    43    21    45 1   
    44    22    40 1   
    45    22    41 1   
    46    23    42 1   
    47    23    43 1   
    48    23    44 1   
@<TRIPOS>SUBSTRUCTURE
     1 ULK         1 TEMP              0 ****  ****    0 ROOT
