@<TRIPOS>MOLECULE
ULK
   46    48     1     0     0
SMALL
bcc


@<TRIPOS>ATOM
      1 C13         40.3640    18.3700    11.3370 ca         1 ULK      -0.145300
      2 C15         40.4640    17.9120    13.7050 ca         1 ULK      -0.132000
      3 C17         39.1460    16.5090    12.2690 ca         1 ULK      -0.132000
      4 C22         47.6580    16.6340     9.7520 cx         1 ULK       0.047700
      5 C24         48.1670    15.3980    10.4200 cx         1 ULK      -0.128700
      6 C01         39.8410    15.3000     5.4250 c3         1 ULK       0.096300
      7 N02         40.5090    16.0590     6.4520 ns         1 ULK      -0.552900
      8 O04         42.5860    15.2830     6.0100 o          1 ULK      -0.610100
      9 C05         42.3310    16.8660     7.7710 ca         1 ULK       0.351800
     10 C06         43.6820    16.8730     8.0780 ca         1 ULK      -0.174300
     11 C07         44.1180    17.7150     9.0950 ca         1 ULK      -0.121600
     12 C08         43.1850    18.5120     9.7400 ca         1 ULK      -0.174300
     13 C09         41.8460    18.4130     9.3790 ca         1 ULK       0.415600
     14 N10         41.4390    17.6060     8.4150 nb         1 ULK      -0.644000
     15 C11         40.7960    19.1930    10.1390 c3         1 ULK       0.155100
     16 O12         39.7430    19.4810     9.2640 oh         1 ULK      -0.569800
     17 C14         40.8300    18.6830    12.6090 ca         1 ULK      -0.107000
     18 C16         39.6210    16.8230    13.5370 ca         1 ULK      -0.117000
     19 C18         39.5150    17.2770    11.1750 ca         1 ULK      -0.107000
     20 O20         46.0160    18.8950     9.8770 o          1 ULK      -0.584100
     21 N21         46.2720    16.6950     9.4200 ns         1 ULK      -0.542900
     22 C23         48.0760    16.6780    11.1910 cx         1 ULK      -0.123400
     23 C25         49.5020    14.8270    10.0270 c3         1 ULK      -0.063100
     24 H1          40.8330    18.1680    14.6900 ha         1 ULK       0.133000
     25 H2          38.4860    15.6620    12.1320 ha         1 ULK       0.133000
     26 H3          48.3170    17.1120     9.0330 h1         1 ULK       0.093700
     27 H4          47.4070    14.6600    10.6590 hc         1 ULK       0.077700
     28 H5          38.7780    15.5120     5.4760 h1         1 ULK       0.040700
     29 H6          40.1980    15.5680     4.4290 h1         1 ULK       0.040700
     30 H7          39.9850    14.2270     5.5610 h1         1 ULK       0.040700
     31 H8          39.9780    16.6820     7.0400 hn         1 ULK       0.348500
     32 H9          44.3640    16.2530     7.5120 ha         1 ULK       0.168000
     33 H10         43.4870    19.1960    10.5220 ha         1 ULK       0.162000
     34 H11         41.2720    20.1110    10.5120 h1         1 ULK       0.045700
     35 H12         39.0660    19.9550     9.7590 ho         1 ULK       0.411000
     36 H13         41.4840    19.5370    12.7460 ha         1 ULK       0.138500
     37 H14         39.3310    16.2230    14.3900 ha         1 ULK       0.132000
     38 H15         39.1440    17.0200    10.1900 ha         1 ULK       0.138500
     39 H16         45.8170    15.8410     9.1380 hn         1 ULK       0.325500
     40 H17         47.2990    16.7710    11.9380 hc         1 ULK       0.080700
     41 H18         48.9930    17.2040    11.4280 hc         1 ULK       0.080700
     42 H19         49.9270    14.2370    10.8400 hc         1 ULK       0.040033
     43 H20         49.4160    14.1790     9.1540 hc         1 ULK       0.040033
     44 H21         50.2150    15.6170     9.7870 hc         1 ULK       0.040033
     45 C19         45.5600    17.8300     9.4970 c          1 ULK       0.681700
     46 C03         41.8250    15.9890     6.6570 c          1 ULK       0.571600
@<TRIPOS>BOND
     1     1    15 1   
     2     1    17 ar  
     3     1    19 ar  
     4     2    17 ar  
     5     2    18 ar  
     6     2    24 1   
     7     3    18 ar  
     8     3    19 ar  
     9     3    25 1   
    10     4     5 1   
    11     4    21 1   
    12     4    22 1   
    13     4    26 1   
    14     5    22 1   
    15     5    23 1   
    16     5    27 1   
    17     6     7 1   
    18     6    28 1   
    19     6    29 1   
    20     6    30 1   
    21     7    31 1   
    22     7    46 1   
    23     8    46 2   
    24     9    10 ar  
    25     9    14 ar  
    26     9    46 1   
    27    10    11 ar  
    28    10    32 1   
    29    11    12 ar  
    30    11    45 1   
    31    12    13 ar  
    32    12    33 1   
    33    13    14 ar  
    34    13    15 1   
    35    15    16 1   
    36    15    34 1   
    37    16    35 1   
    38    17    36 1   
    39    18    37 1   
    40    19    38 1   
    41    20    45 2   
    42    21    39 1   
    43    21    45 1   
    44    22    40 1   
    45    22    41 1   
    46    23    42 1   
    47    23    43 1   
    48    23    44 1   
@<TRIPOS>SUBSTRUCTURE
     1 ULK         1 TEMP              0 ****  ****    0 ROOT
