@<TRIPOS>MOLECULE
ULL
   57    60     1     0     0
SMALL
abcg2


@<TRIPOS>ATOM
      1 C10          9.0920    -7.2780    -8.7440 ce         1 ULL       0.386900
      2 C11          9.8510   -10.3670   -10.2480 ca         1 ULL      -0.095300
      3 C12          9.0110   -11.0400    -9.3640 ca         1 ULL      -0.088000
      4 C13          9.0740   -12.4210    -9.2500 ca         1 ULL      -0.111500
      5 C14          9.9810   -13.1460   -10.0150 ca         1 ULL      -0.100000
      6 C15         10.8220   -12.4790   -10.8950 ca         1 ULL      -0.111500
      7 C16         10.7520   -11.0970   -11.0120 ca         1 ULL      -0.088000
      8 C17          9.0330    -6.3430    -7.6290 ca         1 ULL      -0.151900
      9 C19          7.8570    -4.6710    -6.3470 ca         1 ULL      -0.160500
     10 C20          8.9430    -4.5380    -5.4720 ca         1 ULL       0.006000
     11 C21         10.0760    -5.3190    -5.6890 ca         1 ULL      -0.160500
     12 C25          6.8620    -2.8310    -2.0460 c3         1 ULL      -0.130600
     13 C24          8.2970    -2.7390    -1.5580 c3         1 ULL       0.202300
     14 C26          8.7490    -4.0010    -0.8480 c3         1 ULL      -0.130600
     15 O1           9.2200    -2.3540    -2.6100 os         1 ULL      -0.479100
     16 C23          9.6920    -3.2710    -3.4730 c          1 ULL       0.656100
     17 O2          10.8270    -3.6750    -3.4080 o          1 ULL      -0.465000
     18 N3           8.7920    -3.6210    -4.4320 ns         1 ULL      -0.164000
     19 C22         10.1080    -6.2050    -6.7560 ca         1 ULL      -0.053000
     20 C18          7.9000    -5.5540    -7.4020 ca         1 ULL      -0.053000
     21 N2           8.1030    -7.4440    -9.5330 n2         1 ULL      -0.427300
     22 C9          10.2820    -8.1300    -9.0880 c5         1 ULL      -0.159700
     23 C8           9.8080    -8.8650   -10.3560 c5         1 ULL       0.142000
     24 N1           8.4320    -8.3640   -10.4790 n          1 ULL      -0.188800
     25 C7           7.6400    -8.6370   -11.5430 c          1 ULL       0.639700
     26 O3           8.0700    -9.2600   -12.4990 o          1 ULL      -0.569100
     27 C3           6.2250    -8.1670   -11.4950 ca         1 ULL      -0.116600
     28 C2           5.6620    -7.6680   -12.6650 ca         1 ULL      -0.060000
     29 C1           4.3360    -7.2650   -12.6980 ca         1 ULL      -0.099000
     30 C6           3.5650    -7.3970   -11.5530 ca         1 ULL      -0.001900
     31 BR1          1.7600    -6.8490   -11.5820 br         1 ULL      -0.097100
     32 C5           4.0960    -7.9260   -10.3860 ca         1 ULL      -0.099000
     33 C4           5.4300    -8.3010   -10.3600 ca         1 ULL      -0.060000
     34 HI1          8.2970   -10.4900    -8.7600 ha         1 ULL       0.114000
     35 HJ1          8.4140   -12.9330    -8.5620 ha         1 ULL       0.114000
     36 H9          10.0280   -14.2230    -9.9260 ha         1 ULL       0.113000
     37 HJ2         11.5280   -13.0350   -11.4980 ha         1 ULL       0.114000
     38 HI2         11.4050   -10.5830   -11.7090 ha         1 ULL       0.114000
     39 HL2          6.9670    -4.0720    -6.1940 ha         1 ULL       0.132500
     40 HL1         10.9360    -5.2490    -5.0440 ha         1 ULL       0.132500
     41 HM1          6.5780    -1.9490    -2.6210 hc         1 ULL       0.051367
     42 HM3          6.6810    -3.7220    -2.6480 hc         1 ULL       0.051367
     43 HM2          6.1990    -2.8860    -1.1820 hc         1 ULL       0.051367
     44 H23          8.3710    -1.9000    -0.8660 h1         1 ULL       0.081700
     45 HN1          9.7740    -3.9180    -0.4860 hc         1 ULL       0.051367
     46 HN3          8.1040    -4.1720     0.0140 hc         1 ULL       0.051367
     47 HN2          8.6730    -4.8830    -1.4880 hc         1 ULL       0.051367
     48 H16          7.9160    -3.1190    -4.4290 hn         1 ULL       0.159000
     49 HK1         11.0040    -6.7970    -6.8970 ha         1 ULL       0.124500
     50 HK2          7.0440    -5.6300    -8.0590 ha         1 ULL       0.124500
     51 HH1         11.1720    -7.5260    -9.2710 hc         1 ULL       0.077200
     52 HH2         10.5220    -8.8190    -8.2750 hc         1 ULL       0.077200
     53 H4          10.3880    -8.5460   -11.2250 h1         1 ULL       0.078700
     54 HG1          6.2610    -7.5770   -13.5610 ha         1 ULL       0.129500
     55 HF1          3.9200    -6.8580   -13.6100 ha         1 ULL       0.131000
     56 HF2          3.4880    -8.0460    -9.5000 ha         1 ULL       0.131000
     57 HG2          5.8340    -8.7130    -9.4460 ha         1 ULL       0.129500
@<TRIPOS>BOND
     1     1     8 1   
     2     1    21 2   
     3     1    22 1   
     4     2     3 ar  
     5     2     7 ar  
     6     2    23 1   
     7     3     4 ar  
     8     3    34 1   
     9     4     5 ar  
    10     4    35 1   
    11     5     6 ar  
    12     5    36 1   
    13     6     7 ar  
    14     6    37 1   
    15     7    38 1   
    16     8    19 ar  
    17     8    20 ar  
    18     9    10 ar  
    19     9    20 ar  
    20     9    39 1   
    21    10    11 ar  
    22    10    18 1   
    23    11    19 ar  
    24    11    40 1   
    25    12    13 1   
    26    12    41 1   
    27    12    42 1   
    28    12    43 1   
    29    13    14 1   
    30    13    15 1   
    31    13    44 1   
    32    14    45 1   
    33    14    46 1   
    34    14    47 1   
    35    15    16 1   
    36    16    17 2   
    37    16    18 1   
    38    18    48 1   
    39    19    49 1   
    40    20    50 1   
    41    21    24 1   
    42    22    23 1   
    43    22    51 1   
    44    22    52 1   
    45    23    24 1   
    46    23    53 1   
    47    24    25 1   
    48    25    26 2   
    49    25    27 1   
    50    27    28 ar  
    51    27    33 ar  
    52    28    29 ar  
    53    28    54 1   
    54    29    30 ar  
    55    29    55 1   
    56    30    31 1   
    57    30    32 ar  
    58    32    33 ar  
    59    32    56 1   
    60    33    57 1   
@<TRIPOS>SUBSTRUCTURE
     1 ULL         1 TEMP              0 ****  ****    0 ROOT
