@<TRIPOS>MOLECULE
ULL
   57    60     1     0     0
SMALL
No Charge or Current Charge


@<TRIPOS>ATOM
      1 C10          9.2570    -7.2190    -8.7860 ce         1 ULL       0.386900
      2 C11          9.9750   -10.1470   -10.3950 ca         1 ULL      -0.095300
      3 C12          9.3700   -10.7560    -9.2710 ca         1 ULL      -0.088000
      4 C13          9.4650   -12.1430    -9.0700 ca         1 ULL      -0.111500
      5 C14         10.1630   -12.9420    -9.9900 ca         1 ULL      -0.100000
      6 C15         10.7660   -12.3500   -11.1110 ca         1 ULL      -0.111500
      7 C16         10.6710   -10.9620   -11.3120 ca         1 ULL      -0.088000
      8 C17          9.2250    -6.4600    -7.4970 ca         1 ULL      -0.151900
      9 C19          7.9930    -5.2370    -5.7750 ca         1 ULL      -0.160500
     10 C20          9.1750    -5.0180    -5.0470 ca         1 ULL       0.006000
     11 C21         10.3890    -5.5270    -5.5560 ca         1 ULL      -0.160500
     12 C25          7.6330    -1.8330    -2.7230 c3         1 ULL      -0.130600
     13 C24          8.1030    -2.8160    -1.6240 c3         1 ULL       0.202300
     14 C26          7.2100    -4.0630    -1.4180 c3         1 ULL      -0.130600
     15 O1           9.4960    -3.1910    -1.8150 os         1 ULL      -0.479100
     16 C23         10.0100    -3.9110    -2.8810 c          1 ULL       0.656100
     17 O2          11.2000    -4.1730    -2.9430 o          1 ULL      -0.465000
     18 N3           9.0710    -4.2900    -3.8320 ns         1 ULL      -0.164000
     19 C22         10.4120    -6.2390    -6.7670 ca         1 ULL      -0.053000
     20 C18          8.0130    -5.9480    -6.9870 ca         1 ULL      -0.053000
     21 N2           8.2110    -7.4370    -9.5050 n2         1 ULL      -0.427300
     22 C9          10.4870    -7.8860    -9.4020 c5         1 ULL      -0.159700
     23 C8           9.8860    -8.6350   -10.6490 c5         1 ULL       0.142000
     24 N1           8.4690    -8.2450   -10.5700 n          1 ULL      -0.188800
     25 C7           7.5500    -8.5280   -11.6250 c          1 ULL       0.639700
     26 O3           7.9400    -9.0480   -12.6670 o          1 ULL      -0.569100
     27 C3           6.0750    -8.2020   -11.4490 ca         1 ULL      -0.116600
     28 C2           5.3080    -7.8710   -12.5900 ca         1 ULL      -0.060000
     29 C1           3.9380    -7.5800   -12.4760 ca         1 ULL      -0.099000
     30 C6           3.3110    -7.6330   -11.2220 ca         1 ULL      -0.001900
     31 Br1          1.4460    -7.2410   -11.0680 br         1 ULL      -0.097100
     32 C5           4.0500    -7.9870   -10.0840 ca         1 ULL      -0.099000
     33 C4           5.4210    -8.2770   -10.1950 ca         1 ULL      -0.060000
     34 HI1          8.8220   -10.1540    -8.5490 ha         1 ULL       0.114000
     35 HJ1          8.9950   -12.5990    -8.2010 ha         1 ULL       0.114000
     36 H9          10.2360   -14.0160    -9.8340 ha         1 ULL       0.113000
     37 HJ2         11.3060   -12.9660   -11.8260 ha         1 ULL       0.114000
     38 HI2         11.1400   -10.5180   -12.1870 ha         1 ULL       0.114000
     39 HL2          7.0460    -4.8530    -5.4030 ha         1 ULL       0.132500
     40 HL1         11.3280    -5.3830    -5.0320 ha         1 ULL       0.132500
     41 HM1          8.4020    -1.0770    -2.9200 hc         1 ULL       0.051367
     42 HM3          7.3840    -2.3350    -3.6630 hc         1 ULL       0.051367
     43 HM2          6.7290    -1.3090    -2.3870 hc         1 ULL       0.051367
     44 H23          8.0530    -2.2550    -0.6800 h1         1 ULL       0.081700
     45 HN1          7.7010    -4.7840    -0.7530 hc         1 ULL       0.051367
     46 HN3          6.2640    -3.7670    -0.9500 hc         1 ULL       0.051367
     47 HN2          6.9610    -4.5660    -2.3590 hc         1 ULL       0.051367
     48 H16          8.1310    -3.9900    -3.6210 hn         1 ULL       0.159000
     49 HK1         11.3640    -6.6170    -7.1350 ha         1 ULL       0.124500
     50 HK2          7.0800    -6.0990    -7.5260 ha         1 ULL       0.124500
     51 HH1         11.2150    -7.1300    -9.7140 hc         1 ULL       0.077200
     52 HH2         10.9880    -8.5520    -8.6920 hc         1 ULL       0.077200
     53 H4          10.3520    -8.3300   -11.5960 h1         1 ULL       0.078700
     54 HG1          5.7790    -7.8260   -13.5700 ha         1 ULL       0.129500
     55 HF1          3.3640    -7.3160   -13.3610 ha         1 ULL       0.131000
     56 HF2          3.5600    -8.0460    -9.1140 ha         1 ULL       0.131000
     57 HG2          5.9590    -8.5860    -9.3020 ha         1 ULL       0.129500
@<TRIPOS>BOND
     1     1     8 1   
     2     1    21 2   
     3     1    22 1   
     4     2     3 ar  
     5     2     7 ar  
     6     2    23 1   
     7     3     4 ar  
     8     3    34 1   
     9     4     5 ar  
    10     4    35 1   
    11     5     6 ar  
    12     5    36 1   
    13     6     7 ar  
    14     6    37 1   
    15     7    38 1   
    16     8    19 ar  
    17     8    20 ar  
    18     9    10 ar  
    19     9    20 ar  
    20     9    39 1   
    21    10    11 ar  
    22    10    18 1   
    23    11    19 ar  
    24    11    40 1   
    25    12    13 1   
    26    12    41 1   
    27    12    42 1   
    28    12    43 1   
    29    13    14 1   
    30    13    15 1   
    31    13    44 1   
    32    14    45 1   
    33    14    46 1   
    34    14    47 1   
    35    15    16 1   
    36    16    17 2   
    37    16    18 1   
    38    18    48 1   
    39    19    49 1   
    40    20    50 1   
    41    21    24 1   
    42    22    23 1   
    43    22    51 1   
    44    22    52 1   
    45    23    24 1   
    46    23    53 1   
    47    24    25 1   
    48    25    26 2   
    49    25    27 1   
    50    27    28 ar  
    51    27    33 ar  
    52    28    29 ar  
    53    28    54 1   
    54    29    30 ar  
    55    29    55 1   
    56    30    31 1   
    57    30    32 ar  
    58    32    33 ar  
    59    32    56 1   
    60    33    57 1   
@<TRIPOS>SUBSTRUCTURE
     1 ULL         1 TEMP              0 ****  ****    0 ROOT
