@<TRIPOS>MOLECULE
ULM
   33    35     1     0     0
SMALL
abcg2


@<TRIPOS>ATOM
      1 C2          23.5340    -0.3730   -10.5160 ca         1 ULM       0.130100
      2 C3          23.7610    -0.8420    -9.2200 ca         1 ULM       0.268900
      3 N4          24.9730    -0.9330    -8.6930 nb         1 ULM      -0.601000
      4 C8          24.6430     0.0310   -11.2480 ca         1 ULM      -0.078300
      5 C9          24.7030     0.5510   -12.6500 c5         1 ULM      -0.055100
      6 C5          26.1830     0.3330   -12.9640 c5         1 ULM       0.202300
      7 F1          26.6530     1.1690   -13.9540 f          1 ULM      -0.238000
      8 C7          25.9040    -0.0460   -10.6820 ca         1 ULM      -0.111300
      9 C1          26.0240    -0.5540    -9.3960 ca         1 ULM       0.226300
     10 C6          26.9220     0.5410   -11.6380 c5         1 ULM       0.193600
     11 O2          27.0650     1.9240   -11.4360 oh         1 ULM      -0.633000
     12 C11         27.3700    -0.7260    -8.7500 c3         1 ULM       0.271700
     13 F12         27.2880    -1.2380    -7.5290 f          1 ULM      -0.107000
     14 F13         28.0220     0.4440    -8.6520 f          1 ULM      -0.107000
     15 F14         28.1570    -1.5350    -9.4760 f          1 ULM      -0.107000
     16 O1          22.3400    -0.2830   -11.1110 os         1 ULM      -0.318100
     17 C10         21.1840    -0.6800   -10.4080 cy         1 ULM       0.152300
     18 C12         20.9570    -2.1950   -10.2030 cy         1 ULM      -0.153400
     19 C13         19.9280    -0.6150   -11.2860 cy         1 ULM      -0.153400
     20 C14         19.5420    -1.9720   -10.7170 cy         1 ULM       0.175000
     21 F15         18.6300    -1.8740    -9.7100 f          1 ULM      -0.101000
     22 F16         19.0450    -2.8870   -11.5830 f          1 ULM      -0.101000
     23 H1          22.9450    -1.1620    -8.5820 h4         1 ULM       0.034100
     24 H2          24.4400     1.6120   -12.6860 hc         1 ULM       0.084700
     25 H3          24.0420     0.0200   -13.3350 hc         1 ULM       0.084700
     26 H4          26.3380    -0.7000   -13.2880 h1         1 ULM       0.061700
     27 H5          27.8870     0.0250   -11.6290 h1         1 ULM       0.072700
     28 H6          27.5960     2.0720   -10.6480 ho         1 ULM       0.459000
     29 H7          21.0850    -0.1090    -9.4800 h1         1 ULM       0.074700
     30 H8          21.0620    -2.6020    -9.1980 hc         1 ULM       0.093200
     31 H9          21.5470    -2.7880   -10.9040 hc         1 ULM       0.093200
     32 H10         20.1860    -0.6930   -12.3430 hc         1 ULM       0.093200
     33 H11         19.2360     0.2110   -11.1330 hc         1 ULM       0.093200
@<TRIPOS>BOND
     1     1     2 ar  
     2     1     4 ar  
     3     1    16 1   
     4     2     3 ar  
     5     2    23 1   
     6     3     9 ar  
     7     4     5 1   
     8     4     8 ar  
     9     5     6 1   
    10     5    24 1   
    11     5    25 1   
    12     6     7 1   
    13     6    10 1   
    14     6    26 1   
    15     8     9 ar  
    16     8    10 1   
    17     9    12 1   
    18    10    11 1   
    19    10    27 1   
    20    11    28 1   
    21    12    13 1   
    22    12    14 1   
    23    12    15 1   
    24    16    17 1   
    25    17    18 1   
    26    17    19 1   
    27    17    29 1   
    28    18    20 1   
    29    18    30 1   
    30    18    31 1   
    31    19    20 1   
    32    19    32 1   
    33    19    33 1   
    34    20    21 1   
    35    20    22 1   
@<TRIPOS>SUBSTRUCTURE
     1 ULM         1 TEMP              0 ****  ****    0 ROOT
