@<TRIPOS>MOLECULE
ULM
   33    35     1     0     0
SMALL
No Charge or Current Charge


@<TRIPOS>ATOM
      1 C2          23.5200    -0.2640   -10.4890 ca         1 ULM       0.130100
      2 C3          23.7410    -0.7330    -9.1680 ca         1 ULM       0.268900
      3 N4          24.9770    -0.8430    -8.6130 nb         1 ULM      -0.601000
      4 C8          24.6480     0.1060   -11.2340 ca         1 ULM      -0.078300
      5 C9          24.6840     0.6160   -12.6520 c5         1 ULM      -0.055100
      6 C5          26.1860     0.3170   -13.0070 c5         1 ULM       0.202300
      7 F1          26.6540     1.1850   -14.0010 f          1 ULM      -0.238000
      8 C7          25.9100     0.0100   -10.6720 ca         1 ULM      -0.111300
      9 C1          26.0650    -0.4780    -9.3510 ca         1 ULM       0.226300
     10 C6          26.9840     0.4640   -11.6400 c5         1 ULM       0.193600
     11 O2          27.3770     1.8160   -11.3590 oh         1 ULM      -0.633000
     12 C11         27.4600    -0.6290    -8.7020 c3         1 ULM       0.271700
     13 F12         27.4120    -1.0920    -7.4290 f          1 ULM      -0.107000
     14 F13         28.1220     0.5510    -8.6540 f          1 ULM      -0.107000
     15 F14         28.2420    -1.4900    -9.3940 f          1 ULM      -0.107000
     16 O1          22.2650    -0.1570   -11.0630 os         1 ULM      -0.318100
     17 C10         21.0950    -0.6980   -10.4470 cy         1 ULM       0.152300
     18 C12         20.9700    -2.2560   -10.4650 cy         1 ULM      -0.153400
     19 C13         19.8170    -0.7010   -11.3420 cy         1 ULM      -0.153400
     20 C14         19.4290    -2.0190   -10.5960 cy         1 ULM       0.175000
     21 F15         18.7620    -1.8520    -9.4220 f          1 ULM      -0.101000
     22 F16         18.7520    -2.9370   -11.3330 f          1 ULM      -0.101000
     23 H1          22.9130    -1.0320    -8.5280 h4         1 ULM       0.034100
     24 H2          24.4600     1.6870   -12.7000 hc         1 ULM       0.084700
     25 H3          23.9910     0.0950   -13.3220 hc         1 ULM       0.084700
     26 H4          26.2870    -0.7090   -13.3850 h1         1 ULM       0.061700
     27 H5          27.8530    -0.2080   -11.6300 h1         1 ULM       0.072700
     28 H6          27.8050     1.8150   -10.4750 ho         1 ULM       0.459000
     29 H7          20.9320    -0.2420    -9.4610 h1         1 ULM       0.074700
     30 H8          21.2970    -2.7760    -9.5600 hc         1 ULM       0.093200
     31 H9          21.4310    -2.7380   -11.3350 hc         1 ULM       0.093200
     32 H10         20.0130    -0.8250   -12.4130 hc         1 ULM       0.093200
     33 H11         19.1360     0.1450   -11.2060 hc         1 ULM       0.093200
@<TRIPOS>BOND
     1     1     2 ar  
     2     1     4 ar  
     3     1    16 1   
     4     2     3 ar  
     5     2    23 1   
     6     3     9 ar  
     7     4     5 1   
     8     4     8 ar  
     9     5     6 1   
    10     5    24 1   
    11     5    25 1   
    12     6     7 1   
    13     6    10 1   
    14     6    26 1   
    15     8     9 ar  
    16     8    10 1   
    17     9    12 1   
    18    10    11 1   
    19    10    27 1   
    20    11    28 1   
    21    12    13 1   
    22    12    14 1   
    23    12    15 1   
    24    16    17 1   
    25    17    18 1   
    26    17    19 1   
    27    17    29 1   
    28    18    20 1   
    29    18    30 1   
    30    18    31 1   
    31    19    20 1   
    32    19    32 1   
    33    19    33 1   
    34    20    21 1   
    35    20    22 1   
@<TRIPOS>SUBSTRUCTURE
     1 ULM         1 TEMP              0 ****  ****    0 ROOT
