@<TRIPOS>MOLECULE
ULN
   50    53     1     0     0
SMALL
abcg2


@<TRIPOS>ATOM
      1 C13         41.1110    18.6590    11.7330 ca         1 ULN      -0.086300
      2 C15         40.0400    16.7190    12.6970 ca         1 ULN      -0.110000
      3 C17         40.9030    18.4380    14.1320 ca         1 ULN      -0.110000
      4 C22         48.3220    16.6070     9.8460 cx         1 ULN       0.077700
      5 C24         50.1450    16.7340    11.6210 c5         1 ULN       0.175100
      6 C26         50.2890    15.0150    10.0920 c5         1 ULN       0.175100
      7 C01         40.4290    15.9230     5.5380 c3         1 ULN       0.095300
      8 N02         41.1250    16.5770     6.6170 ns         1 ULN      -0.486900
      9 O04         43.1590    15.7170     6.1390 o          1 ULN      -0.608100
     10 C05         42.9750    17.1840     8.0040 ca         1 ULN       0.288500
     11 C06         44.3200    17.0910     8.3150 ca         1 ULN      -0.094000
     12 C07         44.7940    17.8210     9.4010 ca         1 ULN      -0.119600
     13 C08         43.8980    18.6080    10.1070 ca         1 ULN      -0.090000
     14 C09         42.5570    18.6320     9.7280 ca         1 ULN       0.356300
     15 N10         42.1220    17.9310     8.6940 nb         1 ULN      -0.674000
     16 C11         41.5600    19.4470    10.5190 c3         1 ULN      -0.062700
     17 C12         40.3720    19.9150     9.6810 c3         1 ULN      -0.073100
     18 C14         40.4650    17.4320    11.5860 ca         1 ULN      -0.101500
     19 C16         40.2570    17.2200    13.9750 ca         1 ULN      -0.107000
     20 C18         41.3270    19.1500    13.0170 ca         1 ULN      -0.101500
     21 O20         46.7180    18.8020    10.3730 o          1 ULN      -0.582100
     22 N21         46.9340    16.7160     9.5430 ns         1 ULN      -0.480900
     23 C23         48.7200    16.3810    11.2740 cx         1 ULN      -0.167700
     24 O25         50.9370    16.1730    10.5880 os         1 ULN      -0.456000
     25 C27         48.8130    15.2650    10.2820 cx         1 ULN      -0.167700
     26 H1          39.5390    15.7680    12.5660 ha         1 ULN       0.113500
     27 H2          41.0780    18.8370    15.1230 ha         1 ULN       0.113500
     28 H3          48.9710    17.2180     9.2210 h1         1 ULN       0.108700
     29 H4          50.3980    16.3150    12.6040 h1         1 ULN       0.056450
     30 H5          50.3400    17.8090    11.6500 h1         1 ULN       0.056450
     31 H6          50.5810    14.1140    10.6470 h1         1 ULN       0.056450
     32 H7          50.5870    14.8840     9.0490 h1         1 ULN       0.056450
     33 H8          39.3810    16.2050     5.5820 h1         1 ULN       0.041367
     34 H9          40.8240    16.2200     4.5660 h1         1 ULN       0.041367
     35 H10         40.4960    14.8370     5.6160 h1         1 ULN       0.041367
     36 H11         40.6200    17.1820     7.2460 hn         1 ULN       0.343500
     37 H12         44.9680    16.4840     7.6980 ha         1 ULN       0.148000
     38 H13         44.2290    19.1980    10.9520 ha         1 ULN       0.148000
     39 H14         42.0890    20.3330    10.8800 hc         1 ULN       0.062700
     40 H15         39.7390    20.5720    10.2760 hc         1 ULN       0.041700
     41 H16         40.7070    20.4710     8.8050 hc         1 ULN       0.041700
     42 H17         39.7620    19.0810     9.3370 hc         1 ULN       0.041700
     43 H18         40.2940    17.0280    10.5950 ha         1 ULN       0.115000
     44 H19         39.9250    16.6630    14.8420 ha         1 ULN       0.113000
     45 H20         41.8310    20.1000    13.1470 ha         1 ULN       0.115000
     46 H21         46.4790    15.9280     9.1100 hn         1 ULN       0.327500
     47 H22         47.9620    16.3990    12.0460 hc         1 ULN       0.103700
     48 H23         48.1310    14.4230    10.2990 hc         1 ULN       0.103700
     49 C19         46.2360    17.8300     9.8160 c          1 ULN       0.613700
     50 C03         42.4320    16.4200     6.8270 c          1 ULN       0.504600
@<TRIPOS>BOND
     1     1    16 1   
     2     1    18 ar  
     3     1    20 ar  
     4     2    18 ar  
     5     2    19 ar  
     6     2    26 1   
     7     3    19 ar  
     8     3    20 ar  
     9     3    27 1   
    10     4    22 1   
    11     4    23 1   
    12     4    25 1   
    13     4    28 1   
    14     5    23 1   
    15     5    24 1   
    16     5    29 1   
    17     5    30 1   
    18     6    24 1   
    19     6    25 1   
    20     6    31 1   
    21     6    32 1   
    22     7     8 1   
    23     7    33 1   
    24     7    34 1   
    25     7    35 1   
    26     8    36 1   
    27     8    50 1   
    28     9    50 2   
    29    10    11 ar  
    30    10    15 ar  
    31    10    50 1   
    32    11    12 ar  
    33    11    37 1   
    34    12    13 ar  
    35    12    49 1   
    36    13    14 ar  
    37    13    38 1   
    38    14    15 ar  
    39    14    16 1   
    40    16    17 1   
    41    16    39 1   
    42    17    40 1   
    43    17    41 1   
    44    17    42 1   
    45    18    43 1   
    46    19    44 1   
    47    20    45 1   
    48    21    49 2   
    49    22    46 1   
    50    22    49 1   
    51    23    25 1   
    52    23    47 1   
    53    25    48 1   
@<TRIPOS>SUBSTRUCTURE
     1 ULN         1 TEMP              0 ****  ****    0 ROOT
