@<TRIPOS>MOLECULE
ULN
   50    53     1     0     0
SMALL
No Charge or Current Charge


@<TRIPOS>ATOM
      1 C13         40.9380    18.9330    11.7620 ca         1 ULN      -0.086300
      2 C15         39.9630    17.1430    13.1100 ca         1 ULN      -0.110000
      3 C17         40.7930    19.1570    14.1910 ca         1 ULN      -0.110000
      4 C22         48.3910    16.7460    10.1070 cx         1 ULN       0.077700
      5 C24         49.9990    15.6520    11.7830 c5         1 ULN       0.175100
      6 C26         50.7120    15.7940     9.5530 c5         1 ULN       0.175100
      7 C01         40.6520    15.5770     5.3990 c3         1 ULN       0.095300
      8 N02         41.2660    16.2960     6.5160 ns         1 ULN      -0.486900
      9 O04         43.3480    15.4010     6.3310 o          1 ULN      -0.608100
     10 C05         42.9950    17.0240     8.1180 ca         1 ULN       0.288500
     11 C06         44.3210    16.9590     8.6030 ca         1 ULN      -0.094000
     12 C07         44.7110    17.7470     9.7130 ca         1 ULN      -0.119600
     13 C08         43.7230    18.5760    10.2860 ca         1 ULN      -0.090000
     14 C09         42.4220    18.6000     9.7540 ca         1 ULN       0.356300
     15 N10         42.0620    17.8370     8.6940 nb         1 ULN      -0.674000
     16 C11         41.3530    19.4940    10.4010 c3         1 ULN      -0.062700
     17 C12         40.1120    19.7720     9.5120 c3         1 ULN      -0.073100
     18 C14         40.3360    17.6620    11.8580 ca         1 ULN      -0.101500
     19 C16         40.1910    17.8910    14.2770 ca         1 ULN      -0.107000
     20 C18         41.1660    19.6760    12.9390 ca         1 ULN      -0.101500
     21 O20         46.4220    18.4170    11.2550 o          1 ULN      -0.582100
     22 N21         47.0260    16.8930     9.6840 ns         1 ULN      -0.480900
     23 C23         48.7330    15.5210    10.9250 cx         1 ULN      -0.167700
     24 O25         50.9910    16.2360    10.9040 os         1 ULN      -0.456000
     25 C27         49.1880    15.6140     9.4980 cx         1 ULN      -0.167700
     26 H1          39.4990    16.1620    13.1750 ha         1 ULN       0.113500
     27 H2          40.9710    19.7370    15.0940 ha         1 ULN       0.113500
     28 H3          48.9000    17.6870    10.3280 h1         1 ULN       0.108700
     29 H4          50.3640    14.6730    12.1250 h1         1 ULN       0.056450
     30 H5          49.8660    16.2940    12.6650 h1         1 ULN       0.056450
     31 H6          51.2420    14.8470     9.3760 h1         1 ULN       0.056450
     32 H7          51.0920    16.5370     8.8390 h1         1 ULN       0.056450
     33 H8          39.5990    15.8740     5.3070 h1         1 ULN       0.041367
     34 H9          41.1790    15.8200     4.4680 h1         1 ULN       0.041367
     35 H10         40.7080    14.4960     5.5790 h1         1 ULN       0.041367
     36 H11         40.7080    16.9490     7.0580 hn         1 ULN       0.343500
     37 H12         45.0210    16.2940     8.1070 ha         1 ULN       0.148000
     38 H13         43.9550    19.2010    11.1440 ha         1 ULN       0.148000
     39 H14         41.8220    20.4730    10.5580 hc         1 ULN       0.062700
     40 H15         39.4330    20.4710    10.0140 hc         1 ULN       0.041700
     41 H16         40.4120    20.2210     8.5570 hc         1 ULN       0.041700
     42 H17         39.5540    18.8520     9.3010 hc         1 ULN       0.041700
     43 H18         40.1580    17.0720    10.9610 ha         1 ULN       0.115000
     44 H19         39.9030    17.4900    15.2470 ha         1 ULN       0.113000
     45 H20         41.6310    20.6580    12.8870 ha         1 ULN       0.115000
     46 H21         46.6990    16.3600     8.8910 hn         1 ULN       0.327500
     47 H22         47.9420    14.8240    11.1920 hc         1 ULN       0.103700
     48 H23         48.7260    14.9760     8.7480 hc         1 ULN       0.103700
     49 C19         46.1110    17.7270    10.2930 c          1 ULN       0.613700
     50 C03         42.5830    16.1630     6.9160 c          1 ULN       0.504600
@<TRIPOS>BOND
     1     1    16 1   
     2     1    18 ar  
     3     1    20 ar  
     4     2    18 ar  
     5     2    19 ar  
     6     2    26 1   
     7     3    19 ar  
     8     3    20 ar  
     9     3    27 1   
    10     4    22 1   
    11     4    23 1   
    12     4    25 1   
    13     4    28 1   
    14     5    23 1   
    15     5    24 1   
    16     5    29 1   
    17     5    30 1   
    18     6    24 1   
    19     6    25 1   
    20     6    31 1   
    21     6    32 1   
    22     7     8 1   
    23     7    33 1   
    24     7    34 1   
    25     7    35 1   
    26     8    36 1   
    27     8    50 1   
    28     9    50 2   
    29    10    11 ar  
    30    10    15 ar  
    31    10    50 1   
    32    11    12 ar  
    33    11    37 1   
    34    12    13 ar  
    35    12    49 1   
    36    13    14 ar  
    37    13    38 1   
    38    14    15 ar  
    39    14    16 1   
    40    16    17 1   
    41    16    39 1   
    42    17    40 1   
    43    17    41 1   
    44    17    42 1   
    45    18    43 1   
    46    19    44 1   
    47    20    45 1   
    48    21    49 2   
    49    22    46 1   
    50    22    49 1   
    51    23    25 1   
    52    23    47 1   
    53    25    48 1   
@<TRIPOS>SUBSTRUCTURE
     1 ULN         1 TEMP              0 ****  ****    0 ROOT
