@<TRIPOS>MOLECULE
ULO
   50    49     1     0     0
SMALL
No Charge or Current Charge


@<TRIPOS>ATOM
      1 C01        177.0580   144.4310   176.4110 c3         1 ULO      -0.088100
      2 C02        176.7940   143.5060   175.2080 c3         1 ULO      -0.075400
      3 C03        175.3150   143.0770   175.0900 c3         1 ULO      -0.076400
      4 C04        175.0460   142.1470   173.8850 c3         1 ULO      -0.076400
      5 C05        173.5610   141.7290   173.7700 c3         1 ULO      -0.072400
      6 C06        173.2290   140.8660   172.5280 c3         1 ULO      -0.073400
      7 C07        173.8840   139.4640   172.5260 c3         1 ULO      -0.075400
      8 C08        173.4480   138.6000   171.3240 c3         1 ULO      -0.042400
      9 C09        174.1030   137.1980   171.3300 c3         1 ULO      -0.426400
     10 C12        172.3320   134.9050   170.7170 c3         1 ULO      -0.403700
     11 C13        171.9430   133.7360   169.7740 c3         1 ULO      -0.072850
     12 C14        171.0710   135.6370   171.2470 c3         1 ULO      -0.072850
     13 C15        175.0640   135.0780   169.4870 c3         1 ULO      -0.403700
     14 C16        175.7170   134.2950   170.6560 c3         1 ULO      -0.072850
     15 C17        176.0880   135.9590   168.7390 c3         1 ULO      -0.072850
     16 O11        172.9970   136.8240   168.7990 o          1 ULO      -0.533000
     17 P10        173.5680   136.0770   169.9580 p5         1 ULO       1.219000
     18 H013       178.1180   144.7090   176.4540 hc         1 ULO       0.031700
     19 H011       176.4660   145.3510   176.3320 hc         1 ULO       0.031700
     20 H012       176.7970   143.9300   177.3510 hc         1 ULO       0.031700
     21 H021       177.4270   142.6150   175.2990 hc         1 ULO       0.036200
     22 H022       177.0980   144.0230   174.2890 hc         1 ULO       0.036200
     23 H031       174.6870   143.9720   175.0010 hc         1 ULO       0.036200
     24 H032       175.0140   142.5650   176.0130 hc         1 ULO       0.036200
     25 H042       175.6740   141.2540   173.9820 hc         1 ULO       0.037700
     26 H041       175.3500   142.6560   172.9620 hc         1 ULO       0.037700
     27 H051       172.9430   142.6340   173.7330 hc         1 ULO       0.037200
     28 H052       173.2640   141.1850   174.6760 hc         1 ULO       0.037200
     29 H062       173.5270   141.4090   171.6220 hc         1 ULO       0.039700
     30 H061       172.1400   140.7460   172.4760 hc         1 ULO       0.039700
     31 H072       173.6230   138.9440   173.4560 hc         1 ULO       0.036700
     32 H071       174.9750   139.5670   172.5100 hc         1 ULO       0.036700
     33 H082       173.7100   139.1210   170.3940 hc         1 ULO       0.050200
     34 H081       172.3550   138.4970   171.3330 hc         1 ULO       0.050200
     35 H092       173.8790   136.6780   172.2680 hc         1 ULO       0.068700
     36 H091       175.1900   137.3010   171.2670 hc         1 ULO       0.068700
     37 H121       172.8550   134.4810   171.5810 hc         1 ULO       0.070200
     38 H133       172.8180   133.1330   169.5050 hc         1 ULO       0.041533
     39 H132       171.2230   133.0670   170.2620 hc         1 ULO       0.041533
     40 H131       171.4850   134.1120   168.8500 hc         1 ULO       0.041533
     41 H142       170.3770   134.9270   171.7130 hc         1 ULO       0.041533
     42 H143       171.3360   136.3820   172.0070 hc         1 ULO       0.041533
     43 H141       170.5410   136.1470   170.4340 hc         1 ULO       0.041533
     44 H151       174.6750   134.3500   168.7670 hc         1 ULO       0.070200
     45 H163       175.0030   133.6010   171.1170 hc         1 ULO       0.041533
     46 H162       176.5670   133.7020   170.2960 hc         1 ULO       0.041533
     47 H161       176.0860   134.9750   171.4340 hc         1 ULO       0.041533
     48 H173       176.9200   135.3580   168.3520 hc         1 ULO       0.041533
     49 H172       175.6040   136.4630   167.8940 hc         1 ULO       0.041533
     50 H171       176.4960   136.7300   169.4030 hc         1 ULO       0.041533
@<TRIPOS>BOND
     1     1     2 1   
     2     1    18 1   
     3     1    19 1   
     4     1    20 1   
     5     2     3 1   
     6     2    21 1   
     7     2    22 1   
     8     3     4 1   
     9     3    23 1   
    10     3    24 1   
    11     4     5 1   
    12     4    25 1   
    13     4    26 1   
    14     5     6 1   
    15     5    27 1   
    16     5    28 1   
    17     6     7 1   
    18     6    29 1   
    19     6    30 1   
    20     7     8 1   
    21     7    31 1   
    22     7    32 1   
    23     8     9 1   
    24     8    33 1   
    25     8    34 1   
    26     9    17 1   
    27     9    35 1   
    28     9    36 1   
    29    10    11 1   
    30    10    12 1   
    31    10    17 1   
    32    10    37 1   
    33    11    38 1   
    34    11    39 1   
    35    11    40 1   
    36    12    41 1   
    37    12    42 1   
    38    12    43 1   
    39    13    14 1   
    40    13    15 1   
    41    13    17 1   
    42    13    44 1   
    43    14    45 1   
    44    14    46 1   
    45    14    47 1   
    46    15    48 1   
    47    15    49 1   
    48    15    50 1   
    49    16    17 2   
@<TRIPOS>SUBSTRUCTURE
     1 ULO         1 TEMP              0 ****  ****    0 ROOT
