@<TRIPOS>MOLECULE
ULO
   50    49     1     0     0
SMALL
abcg2


@<TRIPOS>ATOM
      1 C01        177.1700   144.4530   176.0700 c3         1 ULO      -0.088100
      2 C02        176.7940   143.5030   174.9350 c3         1 ULO      -0.075400
      3 C03        175.3500   143.0120   175.0160 c3         1 ULO      -0.076400
      4 C04        174.9640   142.0720   173.8760 c3         1 ULO      -0.076400
      5 C05        173.5220   141.5730   173.9640 c3         1 ULO      -0.072400
      6 C06        173.0820   140.7040   172.7840 c3         1 ULO      -0.073400
      7 C07        173.8260   139.3750   172.6700 c3         1 ULO      -0.075400
      8 C08        173.3360   138.5170   171.5050 c3         1 ULO      -0.042400
      9 C09        174.0900   137.1880   171.4150 c3         1 ULO      -0.426400
     10 C12        172.3450   134.9750   170.5890 c3         1 ULO      -0.403700
     11 C13        171.9930   133.9480   169.5080 c3         1 ULO      -0.072850
     12 C14        171.0970   135.7270   171.0650 c3         1 ULO      -0.072850
     13 C15        175.1140   135.1280   169.6110 c3         1 ULO      -0.403700
     14 C16        175.6210   134.3130   170.8050 c3         1 ULO      -0.072850
     15 C17        176.2180   136.0050   169.0110 c3         1 ULO      -0.072850
     16 O11        173.1820   136.9330   168.7910 o          1 ULO      -0.533000
     17 P10        173.6310   136.1410   169.9890 p5         1 ULO       1.219000
     18 H013       178.2070   144.7860   175.9850 hc         1 ULO       0.031700
     19 H011       176.5310   145.3400   176.0650 hc         1 ULO       0.031700
     20 H012       177.0540   143.9660   177.0420 hc         1 ULO       0.031700
     21 H021       177.4670   142.6390   174.9430 hc         1 ULO       0.036200
     22 H022       176.9480   144.0030   173.9730 hc         1 ULO       0.036200
     23 H031       174.6740   143.8750   175.0190 hc         1 ULO       0.036200
     24 H032       175.1970   142.5010   175.9750 hc         1 ULO       0.036200
     25 H042       175.6530   141.2220   173.8700 hc         1 ULO       0.037700
     26 H041       175.1060   142.5880   172.9190 hc         1 ULO       0.037700
     27 H051       172.8550   142.4400   174.0340 hc         1 ULO       0.037200
     28 H052       173.3910   141.0100   174.8960 hc         1 ULO       0.037200
     29 H062       173.2110   141.2690   171.8530 hc         1 ULO       0.039700
     30 H061       172.0100   140.4990   172.8720 hc         1 ULO       0.039700
     31 H072       173.7110   138.8170   173.6060 hc         1 ULO       0.036700
     32 H071       174.8990   139.5530   172.5480 hc         1 ULO       0.036700
     33 H082       173.4650   139.0660   170.5690 hc         1 ULO       0.050200
     34 H081       172.2630   138.3400   171.6120 hc         1 ULO       0.050200
     35 H092       173.9490   136.5990   172.3260 hc         1 ULO       0.068700
     36 H091       175.1610   137.3880   171.3360 hc         1 ULO       0.068700
     37 H121       172.7850   134.4580   171.4460 hc         1 ULO       0.070200
     38 H133       172.8480   133.3320   169.2300 hc         1 ULO       0.041533
     39 H132       171.2070   133.2840   169.8740 hc         1 ULO       0.041533
     40 H131       171.6210   134.4440   168.6080 hc         1 ULO       0.041533
     41 H142       170.3310   135.0080   171.3630 hc         1 ULO       0.041533
     42 H143       171.3060   136.3650   171.9240 hc         1 ULO       0.041533
     43 H141       170.6830   136.3480   170.2680 hc         1 ULO       0.041533
     44 H151       174.7730   134.4380   168.8330 hc         1 ULO       0.070200
     45 H163       174.8610   133.6350   171.1940 hc         1 ULO       0.041533
     46 H162       176.4790   133.7110   170.4980 hc         1 ULO       0.041533
     47 H161       175.9480   134.9630   171.6190 hc         1 ULO       0.041533
     48 H173       177.0410   135.3750   168.6680 hc         1 ULO       0.041533
     49 H172       175.8510   136.5820   168.1610 hc         1 ULO       0.041533
     50 H171       176.6190   136.7020   169.7500 hc         1 ULO       0.041533
@<TRIPOS>BOND
     1     1     2 1   
     2     1    18 1   
     3     1    19 1   
     4     1    20 1   
     5     2     3 1   
     6     2    21 1   
     7     2    22 1   
     8     3     4 1   
     9     3    23 1   
    10     3    24 1   
    11     4     5 1   
    12     4    25 1   
    13     4    26 1   
    14     5     6 1   
    15     5    27 1   
    16     5    28 1   
    17     6     7 1   
    18     6    29 1   
    19     6    30 1   
    20     7     8 1   
    21     7    31 1   
    22     7    32 1   
    23     8     9 1   
    24     8    33 1   
    25     8    34 1   
    26     9    17 1   
    27     9    35 1   
    28     9    36 1   
    29    10    11 1   
    30    10    12 1   
    31    10    17 1   
    32    10    37 1   
    33    11    38 1   
    34    11    39 1   
    35    11    40 1   
    36    12    41 1   
    37    12    42 1   
    38    12    43 1   
    39    13    14 1   
    40    13    15 1   
    41    13    17 1   
    42    13    44 1   
    43    14    45 1   
    44    14    46 1   
    45    14    47 1   
    46    15    48 1   
    47    15    49 1   
    48    15    50 1   
    49    16    17 2   
@<TRIPOS>SUBSTRUCTURE
     1 ULO         1 TEMP              0 ****  ****    0 ROOT
