@<TRIPOS>MOLECULE
ULQ
   51    54     1     0     0
SMALL
bcc


@<TRIPOS>ATOM
      1 C15         40.5200    18.4110    11.2360 ca         1 ULQ      -0.134300
      2 C17         39.2980    16.5960    12.2470 ca         1 ULQ      -0.132500
      3 C20         40.9480    18.8080    12.4970 ca         1 ULQ      -0.107000
      4 C24         47.6740    16.2090     9.6360 cx         1 ULQ       0.077700
      5 C26         48.0760    14.9610    10.3550 cx         1 ULQ      -0.166700
      6 C28         49.5320    14.5780    10.2520 c5         1 ULQ       0.152400
      7 C01         39.7890    15.2850     5.3170 c3         1 ULQ       0.096300
      8 N02         40.5010    16.0170     6.3360 ns         1 ULQ      -0.551900
      9 O04         42.5370    15.1510     5.8730 o          1 ULQ      -0.611100
     10 C05         42.3680    16.7350     7.6430 ca         1 ULQ       0.351800
     11 C06         43.7160    16.6620     7.9530 ca         1 ULQ      -0.174300
     12 C07         44.1980    17.4760     8.9720 ca         1 ULQ      -0.121600
     13 C08         43.3120    18.3260     9.6150 ca         1 ULQ      -0.173300
     14 C09         41.9710    18.3090     9.2480 ca         1 ULQ       0.416600
     15 N10         41.5190    17.5270     8.2840 nb         1 ULQ      -0.644000
     16 C11         40.9740    19.1630     9.9980 c3         1 ULQ       0.150100
     17 O13         39.9220    19.4740     9.1340 os         1 ULQ      -0.382600
     18 C14         39.0380    20.4420     9.6530 c3         1 ULQ       0.117700
     19 C16         39.6890    17.2990    11.1180 ca         1 ULQ      -0.107000
     20 C18         39.7360    16.9930    13.5060 ca         1 ULQ      -0.119000
     21 C19         40.5620    18.1010    13.6290 ca         1 ULQ      -0.132500
     22 O22         46.1570    18.5430     9.7640 o          1 ULQ      -0.582100
     23 N23         46.2940    16.3350     9.3010 ns         1 ULQ      -0.547900
     24 O29         50.2590    15.7670    10.5080 os         1 ULQ      -0.409600
     25 C30         49.4990    16.5950    11.3710 c5         1 ULQ       0.152400
     26 C31         48.0550    16.2680    11.0840 cx         1 ULQ      -0.166700
     27 H1          38.6510    15.7340    12.1460 ha         1 ULQ       0.133000
     28 H2          41.5860    19.6790    12.5970 ha         1 ULQ       0.138000
     29 H3          48.3600    16.6310     8.9030 h1         1 ULQ       0.108700
     30 H4          47.3380    14.1900    10.5390 hc         1 ULQ       0.103700
     31 H5          49.7550    13.7970    10.9890 h1         1 ULQ       0.056450
     32 H6          49.8250    14.2080     9.2670 h1         1 ULQ       0.056450
     33 H7          38.7400    15.5620     5.3640 h1         1 ULQ       0.040700
     34 H8          40.1620    15.5190     4.3190 h1         1 ULQ       0.040700
     35 H9          39.8670    14.2080     5.4660 h1         1 ULQ       0.040700
     36 H10         40.0010    16.6580     6.9320 hn         1 ULQ       0.348500
     37 H11         44.3610    16.0040     7.3880 ha         1 ULQ       0.168000
     38 H12         43.6520    18.9890    10.4000 ha         1 ULQ       0.163000
     39 H13         41.4920    20.0770    10.3280 h1         1 ULQ       0.048700
     40 H14         38.2920    20.6440     8.8870 h1         1 ULQ       0.034033
     41 H15         38.5230    20.0980    10.5550 h1         1 ULQ       0.034033
     42 H16         39.5560    21.3780     9.8920 h1         1 ULQ       0.034033
     43 H17         39.3470    16.9790    10.1410 ha         1 ULQ       0.138000
     44 H18         39.4310    16.4410    14.3860 ha         1 ULQ       0.132000
     45 H19         40.9010    18.4200    14.6060 ha         1 ULQ       0.133000
     46 H20         45.8010    15.5090     8.9990 hn         1 ULQ       0.327500
     47 H21         49.7180    16.3920    12.4280 h1         1 ULQ       0.056450
     48 H22         49.7670    17.6340    11.1640 h1         1 ULQ       0.056450
     49 H23         47.2990    16.5000    11.8230 hc         1 ULQ       0.103700
     50 C21         45.6430    17.5070     9.3780 c          1 ULQ       0.681700
     51 C03         41.8130    15.8880     6.5290 c          1 ULQ       0.571600
@<TRIPOS>BOND
     1     1     3 ar  
     2     1    16 1   
     3     1    19 ar  
     4     2    19 ar  
     5     2    20 ar  
     6     2    27 1   
     7     3    21 ar  
     8     3    28 1   
     9     4     5 1   
    10     4    23 1   
    11     4    26 1   
    12     4    29 1   
    13     5     6 1   
    14     5    26 1   
    15     5    30 1   
    16     6    24 1   
    17     6    31 1   
    18     6    32 1   
    19     7     8 1   
    20     7    33 1   
    21     7    34 1   
    22     7    35 1   
    23     8    36 1   
    24     8    51 1   
    25     9    51 2   
    26    10    11 ar  
    27    10    15 ar  
    28    10    51 1   
    29    11    12 ar  
    30    11    37 1   
    31    12    13 ar  
    32    12    50 1   
    33    13    14 ar  
    34    13    38 1   
    35    14    15 ar  
    36    14    16 1   
    37    16    17 1   
    38    16    39 1   
    39    17    18 1   
    40    18    40 1   
    41    18    41 1   
    42    18    42 1   
    43    19    43 1   
    44    20    21 ar  
    45    20    44 1   
    46    21    45 1   
    47    22    50 2   
    48    23    46 1   
    49    23    50 1   
    50    24    25 1   
    51    25    26 1   
    52    25    47 1   
    53    25    48 1   
    54    26    49 1   
@<TRIPOS>SUBSTRUCTURE
     1 ULQ         1 TEMP              0 ****  ****    0 ROOT
