@<TRIPOS>MOLECULE
ULQ
   51    54     1     0     0
SMALL
No Charge or Current Charge


@<TRIPOS>ATOM
      1 C15         40.1930    18.6990    11.2450 ca         1 ULQ      -0.134300
      2 C17         38.6170    17.1160    12.2360 ca         1 ULQ      -0.114500
      3 C20         40.4460    19.2300    12.5270 ca         1 ULQ      -0.089000
      4 C24         47.9240    16.4200     9.7440 cx         1 ULQ       0.077700
      5 C26         48.6830    15.2010     9.2680 cx         1 ULQ      -0.166700
      6 C28         50.2080    15.3710     9.2120 c5         1 ULQ       0.175600
      7 C01         39.9330    14.6650     5.6820 c3         1 ULQ       0.096300
      8 N02         40.6100    15.5320     6.6470 ns         1 ULQ      -0.484900
      9 O04         42.6700    14.5840     6.4980 o          1 ULQ      -0.611100
     10 C05         42.4260    16.4600     8.0350 ca         1 ULQ       0.286500
     11 C06         43.7760    16.4520     8.4530 ca         1 ULQ      -0.091000
     12 C07         44.2300    17.3910     9.4110 ca         1 ULQ      -0.121600
     13 C08         43.2780    18.3080     9.9080 ca         1 ULQ      -0.090000
     14 C09         41.9480    18.2690     9.4510 ca         1 ULQ       0.351300
     15 N10         41.5290    17.3580     8.5340 nb         1 ULQ      -0.644000
     16 C11         40.9170    19.2690    10.0200 c3         1 ULQ       0.173300
     17 O13         39.9460    19.6560     9.0140 os         1 ULQ      -0.429000
     18 C14         39.0820    20.7490     9.3770 c3         1 ULQ       0.140900
     19 C16         39.2740    17.6380    11.1080 ca         1 ULQ      -0.089000
     20 C18         38.8730    17.6510    13.5090 ca         1 ULQ      -0.101000
     21 C19         39.7880    18.7070    13.6540 ca         1 ULQ      -0.114500
     22 O22         46.0260    18.2590    10.7420 o          1 ULQ      -0.582100
     23 N23         46.5380    16.5180     9.3800 ns         1 ULQ      -0.480900
     24 O29         50.5630    16.0060    10.4640 os         1 ULQ      -0.456000
     25 C30         49.6200    15.5700    11.4740 c5         1 ULQ       0.175600
     26 C31         48.3080    15.3270    10.7160 cx         1 ULQ      -0.166700
     27 H1          37.9090    16.2980    12.1220 ha         1 ULQ       0.115000
     28 H2          41.1520    20.0480    12.6530 ha         1 ULQ       0.120000
     29 H3          48.4470    17.3780     9.7940 h1         1 ULQ       0.108700
     30 H4          48.1780    14.4640     8.6480 hc         1 ULQ       0.103700
     31 H5          50.7240    14.4030     9.1490 h1         1 ULQ       0.056450
     32 H6          50.5490    15.9950     8.3750 h1         1 ULQ       0.056450
     33 H7          38.8800    14.9620     5.5980 h1         1 ULQ       0.040700
     34 H8          40.4150    14.7570     4.7000 h1         1 ULQ       0.040700
     35 H9          39.9880    13.6220     6.0200 h1         1 ULQ       0.040700
     36 H10         40.0860    16.2700     7.1090 hn         1 ULQ       0.348500
     37 H11         44.4460    15.7140     8.0230 ha         1 ULQ       0.150000
     38 H12         43.5630    19.0490    10.6500 ha         1 ULQ       0.145000
     39 H13         41.4760    20.1610    10.3320 h1         1 ULQ       0.048700
     40 H14         38.4130    20.9980     8.5430 h1         1 ULQ       0.034033
     41 H15         38.4600    20.4920    10.2440 h1         1 ULQ       0.034033
     42 H16         39.6680    21.6450     9.6220 h1         1 ULQ       0.034033
     43 H17         39.0690    17.2180    10.1250 ha         1 ULQ       0.120000
     44 H18         38.3640    17.2470    14.3820 ha         1 ULQ       0.114000
     45 H19         39.9870    19.1220    14.6400 ha         1 ULQ       0.115000
     46 H20         46.1660    15.8780     8.6910 hn         1 ULQ       0.327500
     47 H21         50.0010    14.6490    11.9370 h1         1 ULQ       0.056450
     48 H22         49.5390    16.3370    12.2560 h1         1 ULQ       0.056450
     49 H23         47.5320    14.6860    11.1270 hc         1 ULQ       0.103700
     50 C21         45.6600    17.4410     9.9090 c          1 ULQ       0.614700
     51 C03         41.9440    15.4380     6.9980 c          1 ULQ       0.504600
@<TRIPOS>BOND
     1     1     3 ar  
     2     1    16 1   
     3     1    19 ar  
     4     2    19 ar  
     5     2    20 ar  
     6     2    27 1   
     7     3    21 ar  
     8     3    28 1   
     9     4     5 1   
    10     4    23 1   
    11     4    26 1   
    12     4    29 1   
    13     5     6 1   
    14     5    26 1   
    15     5    30 1   
    16     6    24 1   
    17     6    31 1   
    18     6    32 1   
    19     7     8 1   
    20     7    33 1   
    21     7    34 1   
    22     7    35 1   
    23     8    36 1   
    24     8    51 1   
    25     9    51 2   
    26    10    11 ar  
    27    10    15 ar  
    28    10    51 1   
    29    11    12 ar  
    30    11    37 1   
    31    12    13 ar  
    32    12    50 1   
    33    13    14 ar  
    34    13    38 1   
    35    14    15 ar  
    36    14    16 1   
    37    16    17 1   
    38    16    39 1   
    39    17    18 1   
    40    18    40 1   
    41    18    41 1   
    42    18    42 1   
    43    19    43 1   
    44    20    21 ar  
    45    20    44 1   
    46    21    45 1   
    47    22    50 2   
    48    23    46 1   
    49    23    50 1   
    50    24    25 1   
    51    25    26 1   
    52    25    47 1   
    53    25    48 1   
    54    26    49 1   
@<TRIPOS>SUBSTRUCTURE
     1 ULQ         1 TEMP              0 ****  ****    0 ROOT
