@<TRIPOS>MOLECULE
ULR
   51    54     1     0     0
SMALL
No Charge or Current Charge


@<TRIPOS>ATOM
      1 C1          25.5830    20.3290    29.5280 c6         1 ULR       0.224800
      2 N2          24.1020    20.5540    29.4770 nh         1 ULR      -0.813400
      3 C3          23.5310    20.8690    30.8270 c6         1 ULR       0.215800
      4 C4          23.9470    19.8140    31.9100 c6         1 ULR       0.133800
      5 N5          25.4200    19.5470    31.9480 n7         1 ULR      -0.864400
      6 C6          25.9900    19.2460    30.5970 c6         1 ULR       0.145500
      7 C7          21.8240    18.7900    26.3430 ca         1 ULR      -0.263600
      8 C8          22.9400    19.6210    26.0750 ca         1 ULR       0.254000
      9 C10         23.6750    20.1960    27.1180 ca         1 ULR      -0.261000
     10 C11         23.3300    19.9680    28.4520 ca         1 ULR       0.411000
     11 C12         22.2270    19.1490    28.7340 ca         1 ULR      -0.232000
     12 C13         21.4830    18.5660    27.6960 ca         1 ULR       0.016000
     13 C14         25.6020    17.7880    30.1840 c3         1 ULR      -0.109400
     14 C15         26.2770    17.2720    28.8960 c3         1 ULR      -0.087100
     15 O17         20.0260    17.4270    25.5840 o          1 ULR      -0.606100
     16 N18         21.3240    18.3480    23.9640 ns         1 ULR      -0.474400
     17 C19         20.7660    17.8980    22.7970 cc         1 ULR       0.433900
     18 N20         21.4730    18.3940    21.7160 nc         1 ULR      -0.707000
     19 C21         21.0460    18.0400    20.5000 cd         1 ULR       0.429900
     20 C22         19.9150    17.1910    20.3540 cd         1 ULR      -0.170000
     21 N23         19.2660    16.7380    21.4420 na         1 ULR       0.171100
     22 C24         19.6500    17.0620    22.7290 cd         1 ULR      -0.192000
     23 C25         18.2100    15.9390    21.1030 cd         1 ULR      -0.272100
     24 C26         18.2830    15.9530    19.7240 cc         1 ULR       0.063400
     25 N27         19.3320    16.7240    19.2620 nc         1 ULR      -0.267600
     26 C28         17.3740    15.2460    18.7580 c3         1 ULR      -0.016900
     27 F9          23.3420    19.8960    24.8160 f          1 ULR      -0.182000
     28 H1A         25.9790    20.0430    28.5440 h1         1 ULR       0.063200
     29 H1B         26.0820    21.2750    29.7870 h1         1 ULR       0.063200
     30 H3A         23.8880    21.8580    31.1490 h1         1 ULR       0.062200
     31 H3B         22.4340    20.9430    30.7880 h1         1 ULR       0.062200
     32 H4A         23.6130    20.1610    32.8990 h1         1 ULR       0.042200
     33 H4B         23.4140    18.8740    31.7070 h1         1 ULR       0.042200
     34 H1          25.6090    18.7600    32.5810 hn         1 ULR       0.419000
     35 H6          27.0880    19.2640    30.6810 h1         1 ULR       0.067700
     36 H10         24.5190    20.8360    26.8810 ha         1 ULR       0.134000
     37 H12         21.9440    18.9410    29.7600 ha         1 ULR       0.121000
     38 H13         20.6360    17.9320    27.9570 ha         1 ULR       0.137000
     39 H14A        24.5170    17.6990    30.0550 hc         1 ULR       0.043200
     40 H14B        25.8690    17.1000    30.9960 hc         1 ULR       0.043200
     41 H15A        26.0340    16.2140    28.7380 hc         1 ULR       0.036033
     42 H15C        25.9320    17.8290    28.0170 hc         1 ULR       0.036033
     43 H15B        27.3670    17.3650    28.9630 hc         1 ULR       0.036033
     44 H18         22.1270    18.9440    23.8450 hn         1 ULR       0.351500
     45 H21         21.6110    18.4380    19.6660 h4         1 ULR       0.047100
     46 H24         19.0770    16.6570    23.5480 h4         1 ULR       0.186000
     47 H25         17.5390    15.4570    21.8040 h4         1 ULR       0.236000
     48 H28B        17.9380    14.5390    18.1390 hc         1 ULR       0.047700
     49 H28A        16.5960    14.6850    19.2890 hc         1 ULR       0.047700
     50 H28C        16.8790    15.9620    18.0930 hc         1 ULR       0.047700
     51 C16         20.9770    18.1280    25.2750 c          1 ULR       0.646700
@<TRIPOS>BOND
     1     1     2 1   
     2     1     6 1   
     3     1    28 1   
     4     1    29 1   
     5     2     3 1   
     6     2    10 1   
     7     3     4 1   
     8     3    30 1   
     9     3    31 1   
    10     4     5 1   
    11     4    32 1   
    12     4    33 1   
    13     5     6 1   
    14     5    34 1   
    15     6    13 1   
    16     6    35 1   
    17     7     8 ar  
    18     7    12 ar  
    19     7    51 1   
    20     8     9 ar  
    21     8    27 1   
    22     9    10 ar  
    23     9    36 1   
    24    10    11 ar  
    25    11    12 ar  
    26    11    37 1   
    27    12    38 1   
    28    13    14 1   
    29    13    39 1   
    30    13    40 1   
    31    14    41 1   
    32    14    42 1   
    33    14    43 1   
    34    15    51 2   
    35    16    17 1   
    36    16    44 1   
    37    16    51 1   
    38    17    18 1   
    39    17    22 2   
    40    18    19 2   
    41    19    20 1   
    42    19    45 1   
    43    20    21 1   
    44    20    25 2   
    45    21    22 1   
    46    21    23 1   
    47    22    46 1   
    48    23    24 2   
    49    23    47 1   
    50    24    25 1   
    51    24    26 1   
    52    26    48 1   
    53    26    49 1   
    54    26    50 1   
@<TRIPOS>SUBSTRUCTURE
     1 ULR         1 TEMP              0 ****  ****    0 ROOT
