@<TRIPOS>MOLECULE
ULR
   51    54     1     0     0
SMALL
abcg2


@<TRIPOS>ATOM
      1 C1          25.2940    20.5210    29.6680 c6         1 ULR       0.224800
      2 N2          23.8600    20.2940    29.6490 nh         1 ULR      -0.813400
      3 C3          23.3030    20.4050    30.9860 c6         1 ULR       0.215800
      4 C4          23.9540    19.3970    31.9180 c6         1 ULR       0.133800
      5 N5          25.3920    19.6090    31.9050 n7         1 ULR      -0.864400
      6 C6          25.9880    19.5040    30.5780 c6         1 ULR       0.145500
      7 C7          21.7380    18.7660    26.3170 ca         1 ULR      -0.263600
      8 C8          23.0250    19.2900    26.2280 ca         1 ULR       0.254000
      9 C10         23.7350    19.7860    27.2920 ca         1 ULR      -0.261000
     10 C11         23.1840    19.7840    28.5890 ca         1 ULR       0.411000
     11 C12         21.8800    19.2490    28.7080 ca         1 ULR      -0.232000
     12 C13         21.2010    18.7770    27.6110 ca         1 ULR       0.016000
     13 C14         25.9880    18.0840    30.0000 c3         1 ULR      -0.109400
     14 C15         26.8050    17.9330    28.7230 c3         1 ULR      -0.087100
     15 O17         19.7000    18.0210    25.4060 o          1 ULR      -0.606100
     16 N18         21.4850    18.0010    24.0250 ns         1 ULR      -0.474400
     17 C19         20.8960    17.5370    22.8530 cc         1 ULR       0.433900
     18 N20         21.8020    17.4150    21.8470 nc         1 ULR      -0.707000
     19 C21         21.4070    17.0010    20.6800 cd         1 ULR       0.429900
     20 C22         20.0680    16.6720    20.4130 cd         1 ULR      -0.170000
     21 N23         19.1800    16.8050    21.4590 na         1 ULR       0.171100
     22 C24         19.5730    17.2360    22.6950 cd         1 ULR      -0.192000
     23 C25         17.9610    16.4380    20.9850 cd         1 ULR      -0.272100
     24 C26         18.1650    16.0970    19.6600 cc         1 ULR       0.063400
     25 N27         19.4630    16.2440    19.3190 nc         1 ULR      -0.267600
     26 C28         17.1380    15.6310    18.6900 c3         1 ULR      -0.016900
     27 F9          23.6400    19.3540    25.0300 f          1 ULR      -0.182000
     28 H1A         25.7190    20.4840    28.6700 h1         1 ULR       0.063200
     29 H1B         25.4800    21.5280    30.0510 h1         1 ULR       0.063200
     30 H3A         23.5120    21.4160    31.3510 h1         1 ULR       0.062200
     31 H3B         22.2240    20.2920    30.9840 h1         1 ULR       0.062200
     32 H4A         23.5840    19.5590    32.9320 h1         1 ULR       0.042200
     33 H4B         23.6440    18.3840    31.6220 h1         1 ULR       0.042200
     34 H1          25.8420    18.9550    32.5330 hn         1 ULR       0.419000
     35 H6          27.0320    19.8270    30.6660 h1         1 ULR       0.067700
     36 H10         24.7110    20.2000    27.0820 ha         1 ULR       0.134000
     37 H12         21.3880    19.1810    29.6670 ha         1 ULR       0.121000
     38 H13         20.2060    18.3780    27.7590 ha         1 ULR       0.137000
     39 H14A        24.9650    17.7390    29.8250 hc         1 ULR       0.043200
     40 H14B        26.4010    17.4200    30.7650 hc         1 ULR       0.043200
     41 H15A        26.8850    16.8840    28.4370 hc         1 ULR       0.036033
     42 H15C        26.3580    18.4600    27.8800 hc         1 ULR       0.036033
     43 H15B        27.8190    18.3170    28.8540 hc         1 ULR       0.036033
     44 H18         22.4750    18.1610    23.9250 hn         1 ULR       0.351500
     45 H21         22.1440    16.9090    19.8900 h4         1 ULR       0.047100
     46 H24         18.8190    17.3110    23.4590 h4         1 ULR       0.186000
     47 H25         17.0750    16.4480    21.5960 h4         1 ULR       0.236000
     48 H28B        17.4020    14.6560    18.2780 hc         1 ULR       0.047700
     49 H28A        16.1610    15.5450    19.1620 hc         1 ULR       0.047700
     50 H28C        17.0480    16.3240    17.8530 hc         1 ULR       0.047700
     51 C16         20.8890    18.2400    25.2230 c          1 ULR       0.646700
@<TRIPOS>BOND
     1     1     2 1   
     2     1     6 1   
     3     1    28 1   
     4     1    29 1   
     5     2     3 1   
     6     2    10 1   
     7     3     4 1   
     8     3    30 1   
     9     3    31 1   
    10     4     5 1   
    11     4    32 1   
    12     4    33 1   
    13     5     6 1   
    14     5    34 1   
    15     6    13 1   
    16     6    35 1   
    17     7     8 ar  
    18     7    12 ar  
    19     7    51 1   
    20     8     9 ar  
    21     8    27 1   
    22     9    10 ar  
    23     9    36 1   
    24    10    11 ar  
    25    11    12 ar  
    26    11    37 1   
    27    12    38 1   
    28    13    14 1   
    29    13    39 1   
    30    13    40 1   
    31    14    41 1   
    32    14    42 1   
    33    14    43 1   
    34    15    51 2   
    35    16    17 1   
    36    16    44 1   
    37    16    51 1   
    38    17    18 1   
    39    17    22 2   
    40    18    19 2   
    41    19    20 1   
    42    19    45 1   
    43    20    21 1   
    44    20    25 2   
    45    21    22 1   
    46    21    23 1   
    47    22    46 1   
    48    23    24 2   
    49    23    47 1   
    50    24    25 1   
    51    24    26 1   
    52    26    48 1   
    53    26    49 1   
    54    26    50 1   
@<TRIPOS>SUBSTRUCTURE
     1 ULR         1 TEMP              0 ****  ****    0 ROOT
