@<TRIPOS>MOLECULE
ULS
   34    36     1     0     0
SMALL
No Charge or Current Charge


@<TRIPOS>ATOM
      1 N2          19.0950     1.9460    -7.9840 n1         1 ULS      -0.423000
      2 C16         19.4000     1.1250    -8.7560 cg         1 ULS       0.312000
      3 C15         19.7880     0.1140    -9.7030 ca         1 ULS       0.028000
      4 C10         18.8620    -0.8640   -10.1150 ca         1 ULS      -0.117000
      5 C14         21.0960     0.1000   -10.2280 ca         1 ULS      -0.101000
      6 C13         21.4740    -0.8940   -11.1530 ca         1 ULS       0.112100
      7 C12         20.5440    -1.8570   -11.5710 ca         1 ULS      -0.144000
      8 C11         19.2430    -1.8420   -11.0480 ca         1 ULS       0.186000
      9 F4          18.3500    -2.7740   -11.4450 f          1 ULS      -0.161000
     10 O2          22.7420    -0.9170   -11.6860 os         1 ULS      -0.237200
     11 C2          23.8750    -0.7290   -10.9200 ca         1 ULS       0.111100
     12 C3          23.9650    -1.1680    -9.5780 ca         1 ULS       0.281900
     13 N1          25.0800    -1.0080    -8.8150 nb         1 ULS      -0.605000
     14 C8          25.0060    -0.1160   -11.4770 ca         1 ULS      -0.065300
     15 C9          25.1710     0.4100   -12.8780 c5         1 ULS      -0.026100
     16 C5          26.7430     0.4810   -12.9570 c5         1 ULS      -0.078400
     17 C7          26.1400     0.0620   -10.7060 ca         1 ULS      -0.108300
     18 C6          27.2350     0.7550   -11.4860 c5         1 ULS       0.223600
     19 O1          27.2580     2.1540   -11.2080 oh         1 ULS      -0.650000
     20 C1          26.1690    -0.3960    -9.3650 ca         1 ULS       0.229300
     21 C4          27.4290    -0.2360    -8.4850 c3         1 ULS       0.270700
     22 F1          27.2640    -0.7040    -7.2230 f          1 ULS      -0.107333
     23 F2          28.4880    -0.9010    -9.0040 f          1 ULS      -0.107333
     24 F3          27.7990     1.0600    -8.3660 f          1 ULS      -0.107333
     25 H1          17.8480    -0.8680    -9.7210 ha         1 ULS       0.152000
     26 H2          21.8110     0.8610    -9.9250 ha         1 ULS       0.149000
     27 H3          20.8300    -2.6160   -12.2930 ha         1 ULS       0.154000
     28 H4          23.1260    -1.6700    -9.0980 h4         1 ULS       0.038100
     29 H5          24.7130     1.3990   -12.9920 hc         1 ULS       0.071700
     30 H6          24.7450    -0.2490   -13.6440 hc         1 ULS       0.071700
     31 H7          27.1420    -0.4790   -13.3050 hc         1 ULS       0.064200
     32 H8          27.0940     1.2380   -13.6680 hc         1 ULS       0.064200
     33 H9          28.2220     0.3040   -11.3080 h1         1 ULS       0.061700
     34 H10         27.5080     2.2540   -10.2650 ho         1 ULS       0.457000
@<TRIPOS>BOND
     1     1     2 3   
     2     2     3 1   
     3     3     4 ar  
     4     3     5 ar  
     5     4     8 ar  
     6     4    25 1   
     7     5     6 ar  
     8     5    26 1   
     9     6     7 ar  
    10     6    10 1   
    11     7     8 ar  
    12     7    27 1   
    13     8     9 1   
    14    10    11 1   
    15    11    12 ar  
    16    11    14 ar  
    17    12    13 ar  
    18    12    28 1   
    19    13    20 ar  
    20    14    15 1   
    21    14    17 ar  
    22    15    16 1   
    23    15    29 1   
    24    15    30 1   
    25    16    18 1   
    26    16    31 1   
    27    16    32 1   
    28    17    18 1   
    29    17    20 ar  
    30    18    19 1   
    31    18    33 1   
    32    19    34 1   
    33    20    21 1   
    34    21    22 1   
    35    21    23 1   
    36    21    24 1   
@<TRIPOS>SUBSTRUCTURE
     1 ULS         1 TEMP              0 ****  ****    0 ROOT
