@<TRIPOS>MOLECULE
ULS
   34    36     1     0     0
SMALL
bcc


@<TRIPOS>ATOM
      1 N2          18.2550     2.0170    -8.6290 n1         1 ULS      -0.333800
      2 C16         18.8310     1.1830    -9.1750 cg         1 ULS       0.222800
      3 C15         19.5480     0.1480    -9.8510 ca         1 ULS       0.028000
      4 C10         18.9770    -1.1170    -9.9620 ca         1 ULS      -0.135000
      5 C14         20.8000     0.4330   -10.3880 ca         1 ULS      -0.119000
      6 C13         21.4770    -0.5770   -11.0480 ca         1 ULS       0.112100
      7 C12         20.9410    -1.8490   -11.1770 ca         1 ULS      -0.162000
      8 C11         19.6940    -2.0880   -10.6290 ca         1 ULS       0.150900
      9 F4          19.1680    -3.3070   -10.7470 f          1 ULS      -0.125900
     10 O2          22.6860    -0.3030   -11.6280 os         1 ULS      -0.237200
     11 C2          23.8140    -0.3770   -10.8820 ca         1 ULS       0.045800
     12 C3          23.8760    -0.8990    -9.5920 ca         1 ULS       0.347200
     13 N1          25.0100    -0.9790    -8.9140 nb         1 ULS      -0.605000
     14 C8          24.9880     0.0800   -11.4600 ca         1 ULS      -0.065300
     15 C9          25.2120     0.6560   -12.8230 c5         1 ULS      -0.026100
     16 C5          26.7400     0.5820   -12.9540 c5         1 ULS      -0.078400
     17 C7          26.1660     0.0170   -10.7330 ca         1 ULS      -0.173600
     18 C6          27.2860     0.6690   -11.5280 c5         1 ULS       0.200400
     19 O1          27.4070     2.0320   -11.1840 oh         1 ULS      -0.587800
     20 C1          26.1280    -0.5330    -9.4590 ca         1 ULS       0.294600
     21 C4          27.3790    -0.7090    -8.6410 c3         1 ULS       0.634600
     22 F1          27.1240    -1.1000    -7.3980 f          1 ULS      -0.228633
     23 F2          28.1950    -1.6220    -9.1870 f          1 ULS      -0.228633
     24 F3          28.0830     0.4330    -8.5650 f          1 ULS      -0.228633
     25 H1          18.0030    -1.3340    -9.5450 ha         1 ULS       0.170000
     26 H2          21.2320     1.4220   -10.3000 ha         1 ULS       0.167000
     27 H3          21.4790    -2.6320   -11.6970 ha         1 ULS       0.172000
     28 H4          22.9910    -1.2770    -9.0940 h4         1 ULS       0.038100
     29 H5          24.8430     1.6840   -12.8650 hc         1 ULS       0.071700
     30 H6          24.6950     0.0990   -13.6040 hc         1 ULS       0.071700
     31 H7          27.0190    -0.3840   -13.3770 hc         1 ULS       0.064200
     32 H8          27.1590     1.3570   -13.5960 hc         1 ULS       0.064200
     33 H9          28.2420     0.1440   -11.4320 h1         1 ULS       0.061700
     34 H10         27.8050     2.1050   -10.3120 ho         1 ULS       0.418000
@<TRIPOS>BOND
     1     1     2 3   
     2     2     3 1   
     3     3     4 ar  
     4     3     5 ar  
     5     4     8 ar  
     6     4    25 1   
     7     5     6 ar  
     8     5    26 1   
     9     6     7 ar  
    10     6    10 1   
    11     7     8 ar  
    12     7    27 1   
    13     8     9 1   
    14    10    11 1   
    15    11    12 ar  
    16    11    14 ar  
    17    12    13 ar  
    18    12    28 1   
    19    13    20 ar  
    20    14    15 1   
    21    14    17 ar  
    22    15    16 1   
    23    15    29 1   
    24    15    30 1   
    25    16    18 1   
    26    16    31 1   
    27    16    32 1   
    28    17    18 1   
    29    17    20 ar  
    30    18    19 1   
    31    18    33 1   
    32    19    34 1   
    33    20    21 1   
    34    21    22 1   
    35    21    23 1   
    36    21    24 1   
@<TRIPOS>SUBSTRUCTURE
     1 ULS         1 TEMP              0 ****  ****    0 ROOT
