@<TRIPOS>MOLECULE
ULT
   45    48     1     0     0
SMALL
No Charge or Current Charge


@<TRIPOS>ATOM
      1 C1           2.9120   -42.6910   -19.6270 c          1 ULT       0.716600
      2 C2           1.9580   -43.1110   -18.5220 ca         1 ULT      -0.160600
      3 C3           1.4710   -42.1670   -17.5880 ca         1 ULT      -0.058000
      4 C4           0.5880   -42.5540   -16.5650 ca         1 ULT      -0.199000
      5 C5           0.1740   -43.8980   -16.4580 ca         1 ULT       0.092100
      6 C6          -1.2200   -43.4520   -14.4770 c3         1 ULT       0.247900
      7 C7          -2.0970   -44.2640   -13.5640 cc         1 ULT      -0.198300
      8 C8          -3.5140   -44.1950   -13.5230 cc         1 ULT       0.321500
      9 O1           3.2520   -41.5190   -19.6930 o          1 ULT      -0.724000
     10 O2           3.3070   -43.5410   -20.4130 o          1 ULT      -0.724000
     11 O3          -0.6870   -44.3360   -15.4760 os         1 ULT      -0.355100
     12 C9          -4.3370   -43.1850   -14.2110 ca         1 ULT      -0.061500
     13 C10         -4.1080   -41.8060   -13.9570 ca         1 ULT       0.124000
     14 Cl1         -2.9230   -41.2600   -12.7660 cl         1 ULT      -0.178000
     15 C11         -4.8940   -40.8230   -14.5740 ca         1 ULT      -0.080000
     16 C12         -5.9300   -41.1890   -15.4390 ca         1 ULT      -0.105000
     17 C13         -6.1900   -42.5440   -15.6850 ca         1 ULT      -0.068000
     18 C14         -5.4070   -43.5600   -15.0840 ca         1 ULT      -0.157300
     19 C15         -5.7100   -45.0340   -15.4340 c3         1 ULT       0.358300
     20 F1          -6.4590   -45.1610   -16.5540 f          1 ULT      -0.106333
     21 F2          -6.3950   -45.6530   -14.4470 f          1 ULT      -0.106333
     22 F3          -4.5880   -45.7560   -15.6600 f          1 ULT      -0.106333
     23 N1          -4.0640   -45.0510   -12.6720 nd         1 ULT      -0.357300
     24 O4          -2.9510   -45.7610   -12.1190 os         1 ULT      -0.079700
     25 C16         -1.8080   -45.2580   -12.6770 cd         1 ULT       0.317500
     26 C17         -0.5030   -45.7690   -12.3160 cd         1 ULT      -0.236500
     27 C18          0.7760   -45.3820   -12.7780 cd         1 ULT      -0.113000
     28 C19          1.7140   -46.1510   -12.1450 cc         1 ULT      -0.214000
     29 N2           1.0040   -47.0080   -11.2960 na         1 ULT      -0.103000
     30 C20         -0.3700   -46.7760   -11.3970 cc         1 ULT      -0.156000
     31 C21          0.6520   -44.8400   -17.3800 ca         1 ULT      -0.199000
     32 C22          1.5350   -44.4560   -18.4040 ca         1 ULT      -0.058000
     33 H1           1.7780   -41.1240   -17.6520 ha         1 ULT       0.126500
     34 H2           0.2380   -41.7970   -15.8690 ha         1 ULT       0.096500
     35 H3          -0.4210   -42.9770   -13.8950 h1         1 ULT       0.039700
     36 H4          -1.8020   -42.6600   -14.9620 h1         1 ULT       0.039700
     37 H6          -4.7120   -39.7720   -14.3610 ha         1 ULT       0.133000
     38 H7          -6.5420   -40.4230   -15.9100 ha         1 ULT       0.122000
     39 H8          -7.0100   -42.7950   -16.3540 ha         1 ULT       0.134000
     40 H9           1.0100   -44.6150   -13.5090 ha         1 ULT       0.165000
     41 H10          2.7950   -46.1640   -12.2240 h4         1 ULT       0.152000
     42 H11          1.4280   -47.7040   -10.6880 hn         1 ULT       0.341000
     43 H12         -1.1050   -47.3310   -10.8240 h4         1 ULT       0.153000
     44 H13          0.3370   -45.8780   -17.3020 ha         1 ULT       0.096500
     45 H14          1.8900   -45.2080   -19.1050 ha         1 ULT       0.126500
@<TRIPOS>BOND
     1     1     2 1   
     2     1     9 1   
     3     1    10 1   
     4     2     3 ar  
     5     2    32 ar  
     6     3     4 ar  
     7     3    33 1   
     8     4     5 ar  
     9     4    34 1   
    10     5    11 1   
    11     5    31 ar  
    12     6     7 1   
    13     6    11 1   
    14     6    35 1   
    15     6    36 1   
    16     7     8 1   
    17     7    25 2   
    18     8    12 1   
    19     8    23 2   
    20    12    13 ar  
    21    12    18 ar  
    22    13    14 1   
    23    13    15 ar  
    24    15    16 ar  
    25    15    37 1   
    26    16    17 ar  
    27    16    38 1   
    28    17    18 ar  
    29    17    39 1   
    30    18    19 1   
    31    19    20 1   
    32    19    21 1   
    33    19    22 1   
    34    23    24 1   
    35    24    25 1   
    36    25    26 1   
    37    26    27 1   
    38    26    30 2   
    39    27    28 2   
    40    27    40 1   
    41    28    29 1   
    42    28    41 1   
    43    29    30 1   
    44    29    42 1   
    45    30    43 1   
    46    31    32 ar  
    47    31    44 1   
    48    32    45 1   
@<TRIPOS>SUBSTRUCTURE
     1 ULT         1 TEMP              0 ****  ****    0 ROOT
