@<TRIPOS>MOLECULE
ULT
   45    48     1     0     0
SMALL
abcg2


@<TRIPOS>ATOM
      1 C1           3.0500   -42.7220   -19.4880 c          1 ULT       0.716600
      2 C2           2.0070   -43.1340   -18.4580 ca         1 ULT      -0.160600
      3 C3           1.5190   -42.2240   -17.5280 ca         1 ULT      -0.058000
      4 C4           0.5730   -42.5830   -16.5750 ca         1 ULT      -0.199000
      5 C5           0.0960   -43.8900   -16.5370 ca         1 ULT       0.092100
      6 C6          -1.2410   -43.4650   -14.6190 c3         1 ULT       0.247900
      7 C7          -2.1040   -44.2230   -13.6820 cc         1 ULT      -0.198300
      8 C8          -3.5020   -44.0970   -13.4860 cc         1 ULT       0.321500
      9 O1           3.4540   -41.5450   -19.4290 o          1 ULT      -0.724000
     10 O2           3.4120   -43.5980   -20.2990 o          1 ULT      -0.724000
     11 O3          -0.8130   -44.3460   -15.6450 os         1 ULT      -0.355100
     12 C9          -4.4110   -43.1430   -14.1500 ca         1 ULT      -0.061500
     13 C10         -4.3080   -41.7880   -13.8400 ca         1 ULT       0.124000
     14 CL1         -3.1550   -41.2640   -12.6660 cl         1 ULT      -0.178000
     15 C11         -5.1180   -40.8350   -14.4370 ca         1 ULT      -0.080000
     16 C12         -6.0620   -41.2390   -15.3620 ca         1 ULT      -0.105000
     17 C13         -6.1960   -42.5800   -15.6850 ca         1 ULT      -0.068000
     18 C14         -5.3750   -43.5270   -15.0890 ca         1 ULT      -0.157300
     19 C15         -5.5670   -44.9770   -15.4380 c3         1 ULT       0.358300
     20 F1          -6.3030   -45.1300   -16.5410 f          1 ULT      -0.106333
     21 F2          -6.1950   -45.6370   -14.4580 f          1 ULT      -0.106333
     22 F3          -4.4090   -45.6060   -15.6600 f          1 ULT      -0.106333
     23 N1          -3.9380   -44.9010   -12.5610 nd         1 ULT      -0.357300
     24 O4          -2.8460   -45.5870   -12.1270 os         1 ULT      -0.079700
     25 C16         -1.7480   -45.1830   -12.7760 cd         1 ULT       0.317500
     26 C17         -0.4960   -45.7760   -12.3930 cd         1 ULT      -0.236500
     27 C18          0.7810   -45.6000   -13.0040 cd         1 ULT      -0.113000
     28 C19          1.6770   -46.3250   -12.2690 cc         1 ULT      -0.214000
     29 N2           1.0000   -46.9260   -11.2520 na         1 ULT      -0.103000
     30 C20         -0.3090   -46.6120   -11.3050 cc         1 ULT      -0.156000
     31 C21          0.5720   -44.8180   -17.4650 ca         1 ULT      -0.199000
     32 C22          1.5100   -44.4370   -18.4070 ca         1 ULT      -0.058000
     33 H1           1.8830   -41.2050   -17.5430 ha         1 ULT       0.126500
     34 H2           0.2250   -41.8320   -15.8780 ha         1 ULT       0.096500
     35 H3          -0.3780   -43.0510   -14.0850 h1         1 ULT       0.039700
     36 H4          -1.7950   -42.6220   -15.0440 h1         1 ULT       0.039700
     37 H6          -5.0120   -39.7910   -14.1760 ha         1 ULT       0.133000
     38 H7          -6.7000   -40.5050   -15.8340 ha         1 ULT       0.122000
     39 H8          -6.9440   -42.8720   -16.4070 ha         1 ULT       0.134000
     40 H9           1.0190   -45.0230   -13.8810 ha         1 ULT       0.165000
     41 H10          2.7380   -46.4610   -12.3960 h4         1 ULT       0.152000
     42 H11          1.4160   -47.5240   -10.5560 hn         1 ULT       0.341000
     43 H12         -1.0080   -46.9860   -10.5750 h4         1 ULT       0.153000
     44 H13          0.2030   -45.8360   -17.4350 ha         1 ULT       0.096500
     45 H14          1.8700   -45.1710   -19.1160 ha         1 ULT       0.126500
@<TRIPOS>BOND
     1     1     2 1   
     2     1     9 1   
     3     1    10 1   
     4     2     3 ar  
     5     2    32 ar  
     6     3     4 ar  
     7     3    33 1   
     8     4     5 ar  
     9     4    34 1   
    10     5    11 1   
    11     5    31 ar  
    12     6     7 1   
    13     6    11 1   
    14     6    35 1   
    15     6    36 1   
    16     7     8 1   
    17     7    25 2   
    18     8    12 1   
    19     8    23 2   
    20    12    13 ar  
    21    12    18 ar  
    22    13    14 1   
    23    13    15 ar  
    24    15    16 ar  
    25    15    37 1   
    26    16    17 ar  
    27    16    38 1   
    28    17    18 ar  
    29    17    39 1   
    30    18    19 1   
    31    19    20 1   
    32    19    21 1   
    33    19    22 1   
    34    23    24 1   
    35    24    25 1   
    36    25    26 1   
    37    26    27 1   
    38    26    30 2   
    39    27    28 2   
    40    27    40 1   
    41    28    29 1   
    42    28    41 1   
    43    29    30 1   
    44    29    42 1   
    45    30    43 1   
    46    31    32 ar  
    47    31    44 1   
    48    32    45 1   
@<TRIPOS>SUBSTRUCTURE
     1 ULT         1 TEMP              0 ****  ****    0 ROOT
