@<TRIPOS>MOLECULE
ULV
   61    66     1     0     0
SMALL
No Charge or Current Charge


@<TRIPOS>ATOM
      1 N01        -21.1440     4.7640   -19.3230 nc         1 ULV      -0.773000
      2 C02        -20.2760     5.1130   -20.3640 cc         1 ULV       0.364900
      3 C03        -18.9670     5.5760   -20.1980 cd         1 ULV      -0.230000
      4 C04        -20.6660     4.8970   -18.1140 cd         1 ULV       0.665900
      5 C05        -19.3450     5.3300   -17.8690 cd         1 ULV      -0.217000
      6 N06        -18.5100     5.5950   -18.8820 na         1 ULV       0.095200
      7 C07        -17.3330     6.1690   -18.4210 cd         1 ULV       0.348800
      8 N08        -17.3990     6.1940   -17.0840 nc         1 ULV      -0.550300
      9 C09        -18.6190     5.6440   -16.7480 cc         1 ULV       0.090400
     10 C10        -16.1840     6.7300   -19.2400 c6         1 ULV      -0.097000
     11 N11        -21.5700     4.6600   -17.1700 nv         1 ULV      -1.055900
     12 C12        -14.7950     6.5120   -18.5610 c6         1 ULV      -0.062400
     13 C13        -13.6560     7.1210   -19.4220 c6         1 ULV      -0.105400
     14 C14        -13.9110     8.6300   -19.6700 c5         1 ULV       0.056700
     15 N15        -15.2500     8.8080   -20.2240 n          1 ULV      -0.414800
     16 C16        -16.4230     8.2340   -19.5330 c6         1 ULV       0.104000
     17 C17        -19.1200     5.5280   -15.3770 ca         1 ULV       0.013200
     18 C18        -19.5740     4.2950   -14.8760 ca         1 ULV      -0.106000
     19 C19        -20.0080     4.1790   -13.5440 ca         1 ULV      -0.072000
     20 C20        -19.9780     5.2930   -12.6730 ca         1 ULV      -0.157600
     21 C21        -19.4860     6.5240   -13.1740 ca         1 ULV      -0.072000
     22 C22        -19.0530     6.6310   -14.5080 ca         1 ULV      -0.106000
     23 C23        -20.4530     5.1340   -11.2400 c          1 ULV       0.629700
     24 N24        -20.3960     6.2640   -10.4570 ns         1 ULV      -0.319900
     25 O25        -20.8680     4.0620   -10.8200 o          1 ULV      -0.570100
     26 C26        -20.7320     6.4730    -9.1140 ca         1 ULV       0.481900
     27 N27        -20.7690     7.7900    -8.8360 nb         1 ULV      -0.720000
     28 C28        -21.0830     8.1530    -7.5710 ca         1 ULV       0.372900
     29 C29        -21.3610     7.2250    -6.5530 ca         1 ULV      -0.154000
     30 C30        -21.3090     5.8420    -6.8330 ca         1 ULV      -0.134300
     31 C31        -20.9890     5.4690    -8.1560 ca         1 ULV      -0.134000
     32 C32        -21.6060     4.7870    -5.7610 c3         1 ULV       0.357300
     33 F33        -20.8230     3.6930    -5.8950 f          1 ULV      -0.108333
     34 F34        -21.4080     5.2530    -4.5060 f          1 ULV      -0.108333
     35 F35        -22.8890     4.3660    -5.8280 f          1 ULV      -0.108333
     36 C36        -15.2610     9.2720   -21.5300 c          1 ULV       0.684100
     37 O37        -13.9770     9.5050   -21.9210 os         1 ULV      -0.413100
     38 C38        -13.0680     9.2880   -20.8070 c5         1 ULV       0.148600
     39 O39        -16.2480     9.4220   -22.2310 o          1 ULV      -0.533000
     40 H1         -20.7130     5.0180   -21.3490 h4         1 ULV       0.036100
     41 H2         -18.3070     5.8770   -21.0000 h4         1 ULV       0.166000
     42 H3         -16.1540     6.2040   -20.2040 hc         1 ULV       0.068700
     43 H4         -22.5250     4.6440   -17.5040 hn         1 ULV       0.491500
     44 H5         -21.4130     5.0890   -16.2670 hn         1 ULV       0.491500
     45 H6         -14.6140     5.4380   -18.4110 hc         1 ULV       0.064200
     46 H7         -14.7820     6.9730   -17.5630 hc         1 ULV       0.064200
     47 H8         -13.5980     6.5890   -20.3820 hc         1 ULV       0.056700
     48 H9         -12.6870     6.9820   -18.9250 hc         1 ULV       0.056700
     49 H10        -13.7980     9.1780   -18.7250 h1         1 ULV       0.083700
     50 H11        -16.5780     8.7760   -18.5880 h1         1 ULV       0.073200
     51 H12        -17.3310     8.3610   -20.1400 h1         1 ULV       0.073200
     52 H13        -19.5850     3.4190   -15.5210 ha         1 ULV       0.133000
     53 H14        -20.3620     3.2130   -13.1900 ha         1 ULV       0.128500
     54 H15        -19.4250     7.4080   -12.5450 ha         1 ULV       0.128500
     55 H16        -18.6700     7.5810   -14.8730 ha         1 ULV       0.133000
     56 H17        -20.0720     7.0980   -10.9220 hn         1 ULV       0.173000
     57 H18        -21.1150     9.2230    -7.3680 h4         1 ULV       0.027100
     58 H19        -21.6120     7.5910    -5.5610 ha         1 ULV       0.144000
     59 H20        -20.9340     4.4200    -8.4240 ha         1 ULV       0.173000
     60 H21        -12.2260     8.6610   -21.1300 h1         1 ULV       0.070700
     61 H22        -12.6720    10.2600   -20.4860 h1         1 ULV       0.070700
@<TRIPOS>BOND
     1     1     2 1   
     2     1     4 2   
     3     2     3 2   
     4     2    40 1   
     5     3     6 1   
     6     3    41 1   
     7     4     5 1   
     8     4    11 1   
     9     5     6 1   
    10     5     9 2   
    11     6     7 1   
    12     7     8 2   
    13     7    10 1   
    14     8     9 1   
    15     9    17 1   
    16    10    12 1   
    17    10    16 1   
    18    10    42 1   
    19    11    43 1   
    20    11    44 1   
    21    12    13 1   
    22    12    45 1   
    23    12    46 1   
    24    13    14 1   
    25    13    47 1   
    26    13    48 1   
    27    14    15 1   
    28    14    38 1   
    29    14    49 1   
    30    15    16 1   
    31    15    36 1   
    32    16    50 1   
    33    16    51 1   
    34    17    18 ar  
    35    17    22 ar  
    36    18    19 ar  
    37    18    52 1   
    38    19    20 ar  
    39    19    53 1   
    40    20    21 ar  
    41    20    23 1   
    42    21    22 ar  
    43    21    54 1   
    44    22    55 1   
    45    23    24 1   
    46    23    25 2   
    47    24    26 1   
    48    24    56 1   
    49    26    27 ar  
    50    26    31 ar  
    51    27    28 ar  
    52    28    29 ar  
    53    28    57 1   
    54    29    30 ar  
    55    29    58 1   
    56    30    31 ar  
    57    30    32 1   
    58    31    59 1   
    59    32    33 1   
    60    32    34 1   
    61    32    35 1   
    62    36    37 1   
    63    36    39 2   
    64    37    38 1   
    65    38    60 1   
    66    38    61 1   
@<TRIPOS>SUBSTRUCTURE
     1 ULV         1 TEMP              0 ****  ****    0 ROOT
