@<TRIPOS>MOLECULE
ULV
   61    66     1     0     0
SMALL
bcc


@<TRIPOS>ATOM
      1 N01        -21.0240     4.9370   -19.5390 nc         1 ULV      -0.773000
      2 C02        -20.0630     5.1690   -20.4750 cc         1 ULV       0.430200
      3 C03        -18.8370     5.6580   -20.2050 cd         1 ULV      -0.262600
      4 C04        -20.7420     5.1520   -18.2800 cd         1 ULV       0.731200
      5 C05        -19.4350     5.5880   -17.8700 cd         1 ULV      -0.231600
      6 N06        -18.5360     5.8900   -18.8770 na         1 ULV      -0.006200
      7 C07        -17.4130     6.3770   -18.2970 cd         1 ULV       0.348800
      8 N08        -17.5450     6.3940   -16.9910 nc         1 ULV      -0.550300
      9 C09        -18.7690     5.8990   -16.6910 cc         1 ULV       0.090400
     10 C10        -16.2280     6.8190   -19.0810 c6         1 ULV      -0.097000
     11 N11        -21.7010     4.9400   -17.3560 nv         1 ULV      -0.945500
     12 C12        -14.9620     6.8980   -18.2260 c6         1 ULV      -0.062400
     13 C13        -13.7690     7.3210   -19.0780 c6         1 ULV      -0.105400
     14 C14        -14.0380     8.6550   -19.7650 c5         1 ULV       0.056700
     15 N15        -15.3140     8.6180   -20.4580 n          1 ULV      -0.481800
     16 C16        -16.4850     8.1870   -19.7380 c6         1 ULV       0.104000
     17 C17        -19.1750     5.7330   -15.2960 ca         1 ULV       0.013200
     18 C18        -19.8340     4.5830   -14.8540 ca         1 ULV      -0.124000
     19 C19        -20.1730     4.4310   -13.5220 ca         1 ULV      -0.090000
     20 C20        -19.8700     5.4250   -12.5950 ca         1 ULV      -0.157600
     21 C21        -19.1880     6.5620   -13.0260 ca         1 ULV      -0.090000
     22 C22        -18.8390     6.7100   -14.3570 ca         1 ULV      -0.124000
     23 C23        -20.2530     5.1940   -11.1730 c          1 ULV       0.696700
     24 N24        -20.4370     6.3240   -10.4350 ns         1 ULV      -0.553400
     25 O25        -20.4010     4.0710   -10.7290 o          1 ULV      -0.570100
     26 C26        -20.7690     6.4500    -9.0930 ca         1 ULV       0.547200
     27 N27        -20.9680     7.7110    -8.7270 nb         1 ULV      -0.720000
     28 C28        -21.2860     7.9690    -7.4710 ca         1 ULV       0.438200
     29 C29        -21.4270     6.9910    -6.4990 ca         1 ULV      -0.237300
     30 C30        -21.2120     5.6790    -6.8900 ca         1 ULV      -0.134300
     31 C31        -20.8800     5.3830    -8.2010 ca         1 ULV      -0.217300
     32 C32        -21.3690     4.5460    -5.9170 c3         1 ULV       0.721200
     33 F33        -20.3770     3.6570    -6.0270 f          1 ULV      -0.229633
     34 F34        -21.3870     4.9650    -4.6510 f          1 ULV      -0.229633
     35 F35        -22.5120     3.8840    -6.1320 f          1 ULV      -0.229633
     36 C36        -15.1330     8.3540   -21.7740 c          1 ULV       0.826600
     37 O37        -13.8400     8.5230   -22.0900 os         1 ULV      -0.389900
     38 C38        -13.1170     8.9750   -20.9390 c5         1 ULV       0.125400
     39 O39        -15.9600     8.0240   -22.5900 o          1 ULV      -0.608500
     40 H1         -20.3350     4.9630   -21.5010 h4         1 ULV       0.036100
     41 H2         -18.0860     5.8730   -20.9480 h4         1 ULV       0.184000
     42 H3         -16.0540     6.0870   -19.8800 hc         1 ULV       0.068700
     43 H4         -22.6360     4.8020   -17.7050 hn         1 ULV       0.436300
     44 H5         -21.6420     5.3910   -16.4590 hn         1 ULV       0.436300
     45 H6         -14.7640     5.9300   -17.7620 hc         1 ULV       0.064200
     46 H7         -15.1130     7.6150   -17.4140 hc         1 ULV       0.064200
     47 H8         -13.5670     6.5530   -19.8340 hc         1 ULV       0.056700
     48 H9         -12.8730     7.4060   -18.4610 hc         1 ULV       0.056700
     49 H10        -14.0330     9.4610   -19.0280 h1         1 ULV       0.083700
     50 H11        -16.7110     8.9240   -18.9620 h1         1 ULV       0.073200
     51 H12        -17.3320     8.1650   -20.4230 h1         1 ULV       0.073200
     52 H13        -20.0620     3.7870   -15.5500 ha         1 ULV       0.151000
     53 H14        -20.6760     3.5280   -13.2010 ha         1 ULV       0.146500
     54 H15        -18.8950     7.3400   -12.3310 ha         1 ULV       0.146500
     55 H16        -18.3040     7.5960   -14.6720 ha         1 ULV       0.151000
     56 H17        -20.3970     7.2150   -10.9100 hn         1 ULV       0.339500
     57 H18        -21.4380     9.0110    -7.2160 h4         1 ULV       0.027100
     58 H19        -21.6920     7.2670    -5.4890 ha         1 ULV       0.162000
     59 H20        -20.7070     4.3690    -8.5250 ha         1 ULV       0.191000
     60 H21        -12.1630     8.4510   -20.8930 h1         1 ULV       0.070700
     61 H22        -12.9320    10.0460   -21.0330 h1         1 ULV       0.070700
@<TRIPOS>BOND
     1     1     2 1   
     2     1     4 2   
     3     2     3 2   
     4     2    40 1   
     5     3     6 1   
     6     3    41 1   
     7     4     5 1   
     8     4    11 1   
     9     5     6 1   
    10     5     9 2   
    11     6     7 1   
    12     7     8 2   
    13     7    10 1   
    14     8     9 1   
    15     9    17 1   
    16    10    12 1   
    17    10    16 1   
    18    10    42 1   
    19    11    43 1   
    20    11    44 1   
    21    12    13 1   
    22    12    45 1   
    23    12    46 1   
    24    13    14 1   
    25    13    47 1   
    26    13    48 1   
    27    14    15 1   
    28    14    38 1   
    29    14    49 1   
    30    15    16 1   
    31    15    36 1   
    32    16    50 1   
    33    16    51 1   
    34    17    18 ar  
    35    17    22 ar  
    36    18    19 ar  
    37    18    52 1   
    38    19    20 ar  
    39    19    53 1   
    40    20    21 ar  
    41    20    23 1   
    42    21    22 ar  
    43    21    54 1   
    44    22    55 1   
    45    23    24 1   
    46    23    25 2   
    47    24    26 1   
    48    24    56 1   
    49    26    27 ar  
    50    26    31 ar  
    51    27    28 ar  
    52    28    29 ar  
    53    28    57 1   
    54    29    30 ar  
    55    29    58 1   
    56    30    31 ar  
    57    30    32 1   
    58    31    59 1   
    59    32    33 1   
    60    32    34 1   
    61    32    35 1   
    62    36    37 1   
    63    36    39 2   
    64    37    38 1   
    65    38    60 1   
    66    38    61 1   
@<TRIPOS>SUBSTRUCTURE
     1 ULV         1 TEMP              0 ****  ****    0 ROOT
