@<TRIPOS>MOLECULE
ULW
   62    62     1     0     0
SMALL
No Charge or Current Charge


@<TRIPOS>ATOM
      1 N1          -8.0500    -0.6600    -4.6670 n          1 ULW      -0.393400
      2 C4         -12.1760    -3.3080    -8.2290 c3         1 ULW      -0.062900
      3 C5         -13.0980    -1.8250    -6.3760 c3         1 ULW      -0.043200
      4 C6         -12.2230    -1.7730    -5.1010 c3         1 ULW      -0.036200
      5 C7         -11.2450    -2.9290    -4.9840 c2         1 ULW      -0.231200
      6 C8         -11.2870    -3.9620    -4.1230 c2         1 ULW      -0.114400
      7 C10        -10.2170    -5.0390    -4.1010 c3         1 ULW      -0.062900
      8 C13        -14.2160    -2.7390    -0.4410 c3         1 ULW      -0.060700
      9 C15        -15.1070    -2.5830    -1.6940 c3         1 ULW      -0.087100
     10 C17         -9.4130     0.3230    -6.5020 c3         1 ULW      -0.217400
     11 C20         -8.5230    -1.4900    -2.5780 c5         1 ULW      -0.169400
     12 C21         -7.5270    -2.4410    -3.3050 c5         1 ULW      -0.169400
     13 C22         -7.6480    -1.9860    -4.7670 c          1 ULW       0.567500
     14 O3          -8.4800     1.6560    -8.2900 o          1 ULW      -0.442000
     15 C1         -11.9020     0.6270    -7.9190 c3         1 ULW       0.215800
     16 O2         -10.7190     1.3170    -8.3780 os         1 ULW      -0.447100
     17 C3         -12.3110    -1.8950    -7.6840 c2         1 ULW      -0.080400
     18 C2         -11.8130    -0.8280    -8.3380 c2         1 ULW      -0.280200
     19 C16         -9.4700     1.1200    -7.8180 c          1 ULW       0.614100
     20 C19         -8.3970    -0.2020    -3.4030 c          1 ULW       0.567500
     21 C18         -8.0270     0.2390    -5.8390 c3         1 ULW       0.119000
     22 C9         -12.3810    -4.1900    -3.0870 c3         1 ULW      -0.045200
     23 C11        -12.0480    -3.5290    -1.7270 c3         1 ULW      -0.068400
     24 C12        -13.0810    -3.7920    -0.5990 c3         1 ULW      -0.072400
     25 C14        -15.0790    -3.0520     0.8030 c3         1 ULW      -0.087100
     26 O5          -7.6070    -2.6410    -5.7970 o          1 ULW      -0.502500
     27 H42        -11.6060    -3.3290    -9.1650 hc         1 ULW       0.046700
     28 H43        -11.6630    -3.9680    -7.5210 hc         1 ULW       0.046700
     29 H41        -13.1600    -3.7450    -8.4370 hc         1 ULW       0.046700
     30 H51        -13.7890    -2.6740    -6.2970 hc         1 ULW       0.047700
     31 H52        -13.7380    -0.9350    -6.3790 hc         1 ULW       0.047700
     32 H61        -11.6710    -0.8290    -5.0820 hc         1 ULW       0.044200
     33 H62        -12.8860    -1.7260    -4.2310 hc         1 ULW       0.044200
     34 H7         -10.4170    -2.8590    -5.6910 ha         1 ULW       0.174000
     35 H102        -9.7310    -5.0980    -3.1200 hc         1 ULW       0.043367
     36 H103       -10.6430    -6.0250    -4.3230 hc         1 ULW       0.043367
     37 H101        -9.4330    -4.8490    -4.8440 hc         1 ULW       0.043367
     38 H1         -13.7400    -1.7660    -0.2600 hc         1 ULW       0.042700
     39 H153       -15.9560    -1.9210    -1.4860 hc         1 ULW       0.032367
     40 H151       -14.5450    -2.1360    -2.5210 hc         1 ULW       0.032367
     41 H152       -15.5030    -3.5530    -2.0190 hc         1 ULW       0.032367
     42 H171       -10.1430     0.7500    -5.8080 hc         1 ULW       0.077700
     43 H172        -9.8110    -0.6770    -6.6880 hc         1 ULW       0.077700
     44 H2          -9.5370    -1.8780    -2.7230 hc         1 ULW       0.087450
     45 H201        -8.3420    -1.3170    -1.5110 hc         1 ULW       0.087450
     46 H212        -6.5110    -2.2040    -2.9690 hc         1 ULW       0.087450
     47 H211        -7.7050    -3.5160    -3.1920 hc         1 ULW       0.087450
     48 H12        -12.7880     1.0680    -8.3950 h1         1 ULW       0.061200
     49 H11        -12.0460     0.7350    -6.8370 h1         1 ULW       0.061200
     50 H21        -11.2880    -0.9690    -9.2830 ha         1 ULW       0.191000
     51 H182        -7.6990     1.2420    -5.5340 h1         1 ULW       0.082700
     52 H181        -7.2950    -0.1360    -6.5670 h1         1 ULW       0.082700
     53 H92        -13.3360    -3.8110    -3.4610 hc         1 ULW       0.047700
     54 H91        -12.5430    -5.2650    -2.9380 hc         1 ULW       0.047700
     55 H111       -11.0780    -3.9160    -1.3930 hc         1 ULW       0.034700
     56 H112       -11.9150    -2.4480    -1.8620 hc         1 ULW       0.034700
     57 H121       -12.5270    -3.8260     0.3480 hc         1 ULW       0.039200
     58 H3         -13.5160    -4.7910    -0.7260 hc         1 ULW       0.039200
     59 H141       -14.4580    -3.1010     1.7060 hc         1 ULW       0.032367
     60 H142       -15.8350    -2.2730     0.9590 hc         1 ULW       0.032367
     61 H143       -15.5950    -4.0130     0.6890 hc         1 ULW       0.032367
     62 O4          -8.3910     0.9650    -3.0430 o          1 ULW      -0.502500
@<TRIPOS>BOND
     1     1    13 1   
     2     1    20 1   
     3     1    21 1   
     4     2    17 1   
     5     2    27 1   
     6     2    28 1   
     7     2    29 1   
     8     3     4 1   
     9     3    17 1   
    10     3    30 1   
    11     3    31 1   
    12     4     5 1   
    13     4    32 1   
    14     4    33 1   
    15     5     6 2   
    16     5    34 1   
    17     6     7 1   
    18     6    22 1   
    19     7    35 1   
    20     7    36 1   
    21     7    37 1   
    22     8     9 1   
    23     8    24 1   
    24     8    25 1   
    25     8    38 1   
    26     9    39 1   
    27     9    40 1   
    28     9    41 1   
    29    10    19 1   
    30    10    21 1   
    31    10    42 1   
    32    10    43 1   
    33    11    12 1   
    34    11    20 1   
    35    11    44 1   
    36    11    45 1   
    37    12    13 1   
    38    12    46 1   
    39    12    47 1   
    40    13    26 2   
    41    14    19 2   
    42    15    16 1   
    43    15    18 1   
    44    15    48 1   
    45    15    49 1   
    46    16    19 1   
    47    17    18 2   
    48    18    50 1   
    49    20    62 2   
    50    21    51 1   
    51    21    52 1   
    52    22    23 1   
    53    22    53 1   
    54    22    54 1   
    55    23    24 1   
    56    23    55 1   
    57    23    56 1   
    58    24    57 1   
    59    24    58 1   
    60    25    59 1   
    61    25    60 1   
    62    25    61 1   
@<TRIPOS>SUBSTRUCTURE
     1 ULW         1 TEMP              0 ****  ****    0 ROOT
