@<TRIPOS>MOLECULE
ULW
   62    62     1     0     0
SMALL
abcg2


@<TRIPOS>ATOM
      1 N1          -8.1620    -0.5210    -4.5920 n          1 ULW      -0.393400
      2 C4         -12.2700    -3.3880    -8.1500 c3         1 ULW      -0.062900
      3 C5         -13.0530    -1.7250    -6.3890 c3         1 ULW      -0.043200
      4 C6         -12.1690    -1.7240    -5.1260 c3         1 ULW      -0.036200
      5 C7         -11.2300    -2.8860    -5.0400 c2         1 ULW      -0.231200
      6 C8         -11.3280    -3.9500    -4.2380 c2         1 ULW      -0.114400
      7 C10        -10.3100    -5.0520    -4.2930 c3         1 ULW      -0.062900
      8 C13        -13.9540    -2.8420    -0.3450 c3         1 ULW      -0.060700
      9 C15        -14.7790    -2.3340    -1.5220 c3         1 ULW      -0.087100
     10 C17         -9.4150     0.2590    -6.5290 c3         1 ULW      -0.217400
     11 C20         -8.7090    -1.0870    -2.3890 c5         1 ULW      -0.169400
     12 C21         -8.0400    -2.2800    -3.0560 c5         1 ULW      -0.169400
     13 C22         -7.8020    -1.8490    -4.4810 c          1 ULW       0.567500
     14 O3          -8.3900     1.5000    -8.2940 o          1 ULW      -0.442000
     15 C1         -11.7400     0.4650    -8.1180 c3         1 ULW       0.215800
     16 O2         -10.5160     1.0960    -8.5310 os         1 ULW      -0.447100
     17 C3         -12.3050    -1.9630    -7.6800 c2         1 ULW      -0.080400
     18 C2         -11.7260    -1.0030    -8.4040 c2         1 ULW      -0.280200
     19 C16         -9.3830     0.9900    -7.8410 c          1 ULW       0.614100
     20 C19         -8.6900     0.0020    -3.4300 c          1 ULW       0.567500
     21 C18         -8.0670     0.2360    -5.8250 c3         1 ULW       0.119000
     22 C9         -12.4240    -4.1390    -3.2230 c3         1 ULW      -0.045200
     23 C11        -11.9960    -3.6840    -1.8230 c3         1 ULW      -0.068400
     24 C12        -13.0160    -3.9920    -0.7190 c3         1 ULW      -0.072400
     25 C14        -14.8700    -3.2630     0.8010 c3         1 ULW      -0.087100
     26 O5          -7.3620    -2.5110    -5.3880 o          1 ULW      -0.502500
     27 H42        -11.6510    -3.5140    -9.0380 hc         1 ULW       0.046700
     28 H43        -11.8920    -4.0480    -7.3680 hc         1 ULW       0.046700
     29 H41        -13.2790    -3.7350    -8.3860 hc         1 ULW       0.046700
     30 H51        -13.8030    -2.5110    -6.2770 hc         1 ULW       0.047700
     31 H52        -13.6060    -0.7840    -6.4230 hc         1 ULW       0.047700
     32 H61        -11.5870    -0.8000    -5.1000 hc         1 ULW       0.044200
     33 H62        -12.8260    -1.6810    -4.2550 hc         1 ULW       0.044200
     34 H7         -10.3900    -2.8570    -5.7310 ha         1 ULW       0.174000
     35 H102        -9.8940    -5.2650    -3.3050 hc         1 ULW       0.043367
     36 H103       -10.7690    -5.9830    -4.6390 hc         1 ULW       0.043367
     37 H101        -9.4840    -4.8130    -4.9620 hc         1 ULW       0.043367
     38 H1         -13.3310    -2.0130     0.0100 hc         1 ULW       0.042700
     39 H153       -15.4530    -1.5350    -1.2080 hc         1 ULW       0.032367
     40 H151       -14.1540    -1.9310    -2.3200 hc         1 ULW       0.032367
     41 H152       -15.3900    -3.1340    -1.9490 hc         1 ULW       0.032367
     42 H171       -10.1610     0.7300    -5.8830 hc         1 ULW       0.077700
     43 H172        -9.7610    -0.7640    -6.7020 hc         1 ULW       0.077700
     44 H2          -9.7470    -1.2910    -2.1190 hc         1 ULW       0.087450
     45 H201        -8.2020    -0.7470    -1.4870 hc         1 ULW       0.087450
     46 H212        -7.0790    -2.5320    -2.6030 hc         1 ULW       0.087450
     47 H211        -8.6490    -3.1830    -3.0420 hc         1 ULW       0.087450
     48 H12        -12.5010     0.9640    -8.7220 h1         1 ULW       0.061200
     49 H11        -11.9630     0.6950    -7.0750 h1         1 ULW       0.061200
     50 H21        -11.2360    -1.2780    -9.3340 ha         1 ULW       0.191000
     51 H182        -7.7290     1.2430    -5.5870 h1         1 ULW       0.082700
     52 H181        -7.3050    -0.2300    -6.4460 h1         1 ULW       0.082700
     53 H92        -13.3350    -3.6210    -3.5260 hc         1 ULW       0.047700
     54 H91        -12.6830    -5.2020    -3.1760 hc         1 ULW       0.047700
     55 H111       -11.0470    -4.1690    -1.5790 hc         1 ULW       0.034700
     56 H112       -11.7820    -2.6100    -1.8440 hc         1 ULW       0.034700
     57 H121       -12.4800    -4.2890     0.1870 hc         1 ULW       0.039200
     58 H3         -13.6130    -4.8660    -1.0060 hc         1 ULW       0.039200
     59 H141       -14.2970    -3.5980     1.6670 hc         1 ULW       0.032367
     60 H142       -15.5070    -2.4380     1.1230 hc         1 ULW       0.032367
     61 H143       -15.5220    -4.0850     0.4970 hc         1 ULW       0.032367
     62 O4          -9.0720     1.1410    -3.3150 o          1 ULW      -0.502500
@<TRIPOS>BOND
     1     1    13 1   
     2     1    20 1   
     3     1    21 1   
     4     2    17 1   
     5     2    27 1   
     6     2    28 1   
     7     2    29 1   
     8     3     4 1   
     9     3    17 1   
    10     3    30 1   
    11     3    31 1   
    12     4     5 1   
    13     4    32 1   
    14     4    33 1   
    15     5     6 2   
    16     5    34 1   
    17     6     7 1   
    18     6    22 1   
    19     7    35 1   
    20     7    36 1   
    21     7    37 1   
    22     8     9 1   
    23     8    24 1   
    24     8    25 1   
    25     8    38 1   
    26     9    39 1   
    27     9    40 1   
    28     9    41 1   
    29    10    19 1   
    30    10    21 1   
    31    10    42 1   
    32    10    43 1   
    33    11    12 1   
    34    11    20 1   
    35    11    44 1   
    36    11    45 1   
    37    12    13 1   
    38    12    46 1   
    39    12    47 1   
    40    13    26 2   
    41    14    19 2   
    42    15    16 1   
    43    15    18 1   
    44    15    48 1   
    45    15    49 1   
    46    16    19 1   
    47    17    18 2   
    48    18    50 1   
    49    20    62 2   
    50    21    51 1   
    51    21    52 1   
    52    22    23 1   
    53    22    53 1   
    54    22    54 1   
    55    23    24 1   
    56    23    55 1   
    57    23    56 1   
    58    24    57 1   
    59    24    58 1   
    60    25    59 1   
    61    25    60 1   
    62    25    61 1   
@<TRIPOS>SUBSTRUCTURE
     1 ULW         1 TEMP              0 ****  ****    0 ROOT
