@<TRIPOS>MOLECULE
ULX
   70    74     1     0     0
SMALL
abcg2


@<TRIPOS>ATOM
      1 C1         112.4250     5.1770    13.5980 ca         1 ULX      -0.022000
      2 C10        104.5100    10.3430    11.8010 cc         1 ULX      -0.129100
      3 C11        109.2800     9.9010    14.8070 c5         1 ULX      -0.090000
      4 C12        105.1970    11.3370     9.9110 ca         1 ULX      -0.047200
      5 C13        109.8140     7.3270    20.8970 c3         1 ULX       0.343300
      6 C14        109.3380    10.9210    13.6390 c5         1 ULX      -0.115400
      7 C15        107.9260    11.5220    13.6030 c5         1 ULX       0.143800
      8 C16        106.3390    10.8150    10.5790 ca         1 ULX      -0.092800
      9 C17        107.7420     9.7470    15.0570 c5         1 ULX       0.151800
     10 C18        105.2900    12.0200     8.6990 ca         1 ULX      -0.125000
     11 C19        106.5520    12.1790     8.1480 ca         1 ULX      -0.094000
     12 C2         113.7350     5.3660    13.1660 ca         1 ULX      -0.154300
     13 C20        107.6970    11.6670     8.7880 ca         1 ULX      -0.138000
     14 C21        107.6020    10.9890     9.9920 ca         1 ULX      -0.070000
     15 C22        109.9980    10.5040    16.0450 c3         1 ULX      -0.025100
     16 C23        109.9440     9.6700    17.2970 ca         1 ULX      -0.048300
     17 C24        108.9840     9.9120    18.2820 ca         1 ULX      -0.115000
     18 C25        108.9270     9.1430    19.4340 ca         1 ULX      -0.060500
     19 C26        109.8410     8.1100    19.6210 ca         1 ULX      -0.194300
     20 C27        110.8120     7.8570    18.6560 ca         1 ULX      -0.060500
     21 C28        110.8580     8.6330    17.5060 ca         1 ULX      -0.115000
     22 C3         114.2040     6.6760    13.0490 ca         1 ULX      -0.017000
     23 C30        109.8750     8.5470    14.4170 c3         1 ULX       0.231800
     24 C4         113.3950     7.7560    13.3590 ca         1 ULX       0.028000
     25 C5         112.0620     7.5690    13.8030 ca         1 ULX       0.381000
     26 C6         111.5980     6.2480    13.9070 ca         1 ULX      -0.213000
     27 C7         114.6310     4.2050    12.8630 c3         1 ULX       0.217900
     28 C9         105.8740    10.1890    11.7880 cd         1 ULX      -0.149400
     29 F14        110.3800     6.1080    20.7750 f          1 ULX      -0.114333
     30 F15        110.4860     7.9580    21.8990 f          1 ULX      -0.114333
     31 F16        108.5570     7.1320    21.3600 f          1 ULX      -0.114333
     32 N11        104.1020    11.0320    10.6820 na         1 ULX      -0.232700
     33 N12        111.2880     8.6460    14.1180 nu         1 ULX      -0.965200
     34 N16        107.0190    10.4270    13.9730 n3         1 ULX      -0.694600
     35 N17        113.8320     9.1230    13.2360 nh         1 ULX      -0.221400
     36 O10        114.1560     9.6280    14.5390 oh         1 ULX      -0.481300
     37 O11        115.0170     9.1630    12.4600 oh         1 ULX      -0.481300
     38 O9         115.3770     3.8640    14.0520 oh         1 ULX      -0.667000
     39 H1         112.0340     4.1690    13.6850 ha         1 ULX       0.114000
     40 H3         109.5550    10.4120    12.6980 hc         1 ULX       0.052700
     41 H4         110.1080    11.6800    13.7840 hc         1 ULX       0.052700
     42 H5         107.8400    12.3100    14.3570 h1         1 ULX       0.064200
     43 H6         107.6550    11.9500    12.6410 h1         1 ULX       0.064200
     44 H7         107.4820    10.2340    15.9980 h1         1 ULX       0.058200
     45 H8         107.4310     8.7050    15.1310 h1         1 ULX       0.058200
     46 H9         104.4080    12.4120     8.2090 ha         1 ULX       0.113000
     47 H10        106.6600    12.7060     7.2080 ha         1 ULX       0.111000
     48 H11        108.6670    11.8090     8.3290 ha         1 ULX       0.111000
     49 H12        108.4900    10.6030    10.4760 ha         1 ULX       0.111000
     50 H13        111.0420    10.6820    15.7850 hc         1 ULX       0.059700
     51 H14        109.5460    11.4780    16.2440 hc         1 ULX       0.059700
     52 H15        108.2790    10.7230    18.1520 ha         1 ULX       0.127000
     53 H16        108.1760     9.3490    20.1860 ha         1 ULX       0.130500
     54 H17        111.5300     7.0620    18.8000 ha         1 ULX       0.130500
     55 H18        111.6170     8.4340    16.7590 ha         1 ULX       0.127000
     56 H19        115.2090     6.8580    12.6970 ha         1 ULX       0.132000
     57 H20        109.3180     8.1450    13.5610 h1         1 ULX       0.043700
     58 H21        109.7350     7.8430    15.2400 h1         1 ULX       0.043700
     59 H22        110.5810     6.0620    14.2200 ha         1 ULX       0.119000
     60 H23        114.0350     3.3450    12.5440 h1         1 ULX       0.026700
     61 H24        115.3250     4.4620    12.0580 h1         1 ULX       0.026700
     62 H27        103.1470    11.2570    10.4560 hn         1 ULX       0.351000
     63 H28        111.6460     9.5430    13.8330 hn         1 ULX       0.506000
     64 H30        115.9710     3.1360    13.8290 ho         1 ULX       0.438000
     65 H29        114.7320     8.9620    14.9590 ho         1 ULX       0.455500
     66 H31        114.9710    10.0300    12.0330 ho         1 ULX       0.455500
     67 C8         106.7000     9.5260    12.8440 c3         1 ULX       0.233000
     68 H2         103.7900    10.0100    12.5310 h4         1 ULX       0.216000
     69 H25        106.1460     8.6860    13.2670 h1         1 ULX       0.036700
     70 H26        107.6020     9.1050    12.3790 h1         1 ULX       0.036700
@<TRIPOS>BOND
     1     1    12 ar  
     2     1    26 ar  
     3     1    39 1   
     4     2    28 2   
     5     2    32 1   
     6     2    68 1   
     7     3     6 1   
     8     3     9 1   
     9     3    15 1   
    10     3    23 1   
    11     4     8 ar  
    12     4    10 ar  
    13     4    32 1   
    14     5    19 1   
    15     5    29 1   
    16     5    30 1   
    17     5    31 1   
    18     6     7 1   
    19     6    40 1   
    20     6    41 1   
    21     7    34 1   
    22     7    42 1   
    23     7    43 1   
    24     8    14 ar  
    25     8    28 1   
    26     9    34 1   
    27     9    44 1   
    28     9    45 1   
    29    10    11 ar  
    30    10    46 1   
    31    11    13 ar  
    32    11    47 1   
    33    12    22 ar  
    34    12    27 1   
    35    13    14 ar  
    36    13    48 1   
    37    14    49 1   
    38    15    16 1   
    39    15    50 1   
    40    15    51 1   
    41    16    17 ar  
    42    16    21 ar  
    43    17    18 ar  
    44    17    52 1   
    45    18    19 ar  
    46    18    53 1   
    47    19    20 ar  
    48    20    21 ar  
    49    20    54 1   
    50    21    55 1   
    51    22    24 ar  
    52    22    56 1   
    53    23    33 1   
    54    23    57 1   
    55    23    58 1   
    56    24    25 ar  
    57    24    35 1   
    58    25    26 ar  
    59    25    33 1   
    60    26    59 1   
    61    27    38 1   
    62    27    60 1   
    63    27    61 1   
    64    28    67 1   
    65    32    62 1   
    66    33    63 1   
    67    34    67 1   
    68    35    36 1   
    69    35    37 1   
    70    36    65 1   
    71    37    66 1   
    72    38    64 1   
    73    67    69 1   
    74    67    70 1   
@<TRIPOS>SUBSTRUCTURE
     1 ULX         1 TEMP              0 ****  ****    0 ROOT
