@<TRIPOS>MOLECULE
ULX
   70    74     1     0     0
SMALL
No Charge or Current Charge


@<TRIPOS>ATOM
      1 C1         112.3010     5.2320    13.1610 ca         1 ULX      -0.022000
      2 C10        104.5460    10.8660    11.9470 cc         1 ULX      -0.129100
      3 C11        109.1820     9.9900    14.8540 c5         1 ULX      -0.090000
      4 C12        105.3540    11.3150     9.8500 ca         1 ULX      -0.047200
      5 C13        110.0400     7.1270    20.8960 c3         1 ULX       0.343300
      6 C14        109.1910    11.0190    13.6590 c5         1 ULX      -0.115400
      7 C15        107.8070    11.7030    13.7660 c5         1 ULX       0.143800
      8 C16        106.3510    10.6530    10.5120 ca         1 ULX      -0.092800
      9 C17        107.6460     9.8980    15.2030 c5         1 ULX       0.151800
     10 C18        105.5130    11.7480     8.5250 ca         1 ULX      -0.125000
     11 C19        106.7430    11.4800     7.8860 ca         1 ULX      -0.094000
     12 C2         113.6800     5.4420    12.9980 ca         1 ULX      -0.154300
     13 C20        107.7740    10.7950     8.5750 ca         1 ULX      -0.138000
     14 C21        107.5850    10.3710     9.9080 ca         1 ULX      -0.070000
     15 C22        109.9940    10.5370    16.0790 c3         1 ULX      -0.025100
     16 C23        109.9990     9.6490    17.3250 ca         1 ULX      -0.048300
     17 C24        109.0340     9.8240    18.3350 ca         1 ULX      -0.115000
     18 C25        109.0430     9.0110    19.4820 ca         1 ULX      -0.060500
     19 C26        110.0220     8.0080    19.6410 ca         1 ULX      -0.194300
     20 C27        111.0040     7.8510    18.6400 ca         1 ULX      -0.060500
     21 C28        110.9920     8.6660    17.4950 ca         1 ULX      -0.115000
     22 C3         114.2090     6.7380    13.1540 ca         1 ULX      -0.017000
     23 C30        109.7370     8.5970    14.4230 c3         1 ULX       0.231800
     24 C4         113.3820     7.8380    13.4820 ca         1 ULX       0.028000
     25 C5         111.9820     7.6050    13.6350 ca         1 ULX       0.381000
     26 C6         111.4600     6.3090    13.4730 ca         1 ULX      -0.213000
     27 C7         114.5960     4.2800    12.6480 c3         1 ULX       0.217900
     28 C9         105.8400    10.3700    11.8360 cd         1 ULX      -0.149400
     29 F14        110.5530     5.8980    20.6550 f          1 ULX      -0.114333
     30 F15        110.7870     7.6820    21.8750 f          1 ULX      -0.114333
     31 F16        108.8010     6.9330    21.4050 f          1 ULX      -0.114333
     32 N11        104.2630    11.4510    10.6940 na         1 ULX      -0.232700
     33 N12        111.1200     8.6650    13.9280 nu         1 ULX      -0.965200
     34 N16        106.9360    10.5450    14.0720 n3         1 ULX      -0.694600
     35 N17        113.9580     9.1480    13.6100 nh         1 ULX      -0.221400
     36 O10        113.5280    10.0430    14.5840 oh         1 ULX      -0.481300
     37 O11        115.3250     9.3690    13.4750 oh         1 ULX      -0.481300
     38 O9         115.1540     3.7240    13.8410 oh         1 ULX      -0.667000
     39 H1         111.8810     4.2350    13.0420 ha         1 ULX       0.114000
     40 H3         109.3070    10.5240    12.6890 hc         1 ULX       0.052700
     41 H4         110.0080    11.7460    13.7270 hc         1 ULX       0.052700
     42 H5         107.7930    12.4400    14.5820 h1         1 ULX       0.064200
     43 H6         107.5260    12.2250    12.8410 h1         1 ULX       0.064200
     44 H7         107.4250    10.4510    16.1260 h1         1 ULX       0.058200
     45 H8         107.3130     8.8640    15.3720 h1         1 ULX       0.058200
     46 H9         104.7150    12.2740     8.0060 ha         1 ULX       0.113000
     47 H10        106.9000    11.8020     6.8590 ha         1 ULX       0.111000
     48 H11        108.7180    10.5940     8.0740 ha         1 ULX       0.111000
     49 H12        108.3710     9.8450    10.4440 ha         1 ULX       0.111000
     50 H13        111.0300    10.7290    15.7770 hc         1 ULX       0.059700
     51 H14        109.6040    11.5260    16.3520 hc         1 ULX       0.059700
     52 H15        108.2740    10.5960    18.2390 ha         1 ULX       0.127000
     53 H16        108.2870     9.1700    20.2480 ha         1 ULX       0.130500
     54 H17        111.7840     7.0980    18.7440 ha         1 ULX       0.130500
     55 H18        111.7580     8.5280    16.7360 ha         1 ULX       0.127000
     56 H19        115.2780     6.8820    13.0220 ha         1 ULX       0.132000
     57 H20        109.0940     8.1830    13.6350 h1         1 ULX       0.043700
     58 H21        109.6760     7.9070    15.2750 h1         1 ULX       0.043700
     59 H22        110.3960     6.1270    13.5830 ha         1 ULX       0.119000
     60 H23        114.0250     3.5160    12.1010 h1         1 ULX       0.026700
     61 H24        115.3940     4.6330    11.9810 h1         1 ULX       0.026700
     62 H27        103.3880    11.9080    10.4490 hn         1 ULX       0.351000
     63 H28        111.6350     9.5310    14.1030 hn         1 ULX       0.506000
     64 H30        115.7300     2.9790    13.5610 ho         1 ULX       0.438000
     65 H29        114.1400     9.7970    15.3130 ho         1 ULX       0.455500
     66 H31        115.3220    10.0710    12.7840 ho         1 ULX       0.455500
     67 C8         106.5920     9.6550    12.9340 c3         1 ULX       0.233000
     68 H2         103.8460    10.8550    12.7780 h4         1 ULX       0.216000
     69 H25        105.9590     8.8330    13.2940 h1         1 ULX       0.036700
     70 H26        107.4890     9.1920    12.5050 h1         1 ULX       0.036700
@<TRIPOS>BOND
     1     1    12 ar  
     2     1    26 ar  
     3     1    39 1   
     4     2    28 2   
     5     2    32 1   
     6     2    68 1   
     7     3     6 1   
     8     3     9 1   
     9     3    15 1   
    10     3    23 1   
    11     4     8 ar  
    12     4    10 ar  
    13     4    32 1   
    14     5    19 1   
    15     5    29 1   
    16     5    30 1   
    17     5    31 1   
    18     6     7 1   
    19     6    40 1   
    20     6    41 1   
    21     7    34 1   
    22     7    42 1   
    23     7    43 1   
    24     8    14 ar  
    25     8    28 1   
    26     9    34 1   
    27     9    44 1   
    28     9    45 1   
    29    10    11 ar  
    30    10    46 1   
    31    11    13 ar  
    32    11    47 1   
    33    12    22 ar  
    34    12    27 1   
    35    13    14 ar  
    36    13    48 1   
    37    14    49 1   
    38    15    16 1   
    39    15    50 1   
    40    15    51 1   
    41    16    17 ar  
    42    16    21 ar  
    43    17    18 ar  
    44    17    52 1   
    45    18    19 ar  
    46    18    53 1   
    47    19    20 ar  
    48    20    21 ar  
    49    20    54 1   
    50    21    55 1   
    51    22    24 ar  
    52    22    56 1   
    53    23    33 1   
    54    23    57 1   
    55    23    58 1   
    56    24    25 ar  
    57    24    35 1   
    58    25    26 ar  
    59    25    33 1   
    60    26    59 1   
    61    27    38 1   
    62    27    60 1   
    63    27    61 1   
    64    28    67 1   
    65    32    62 1   
    66    33    63 1   
    67    34    67 1   
    68    35    36 1   
    69    35    37 1   
    70    36    65 1   
    71    37    66 1   
    72    38    64 1   
    73    67    69 1   
    74    67    70 1   
@<TRIPOS>SUBSTRUCTURE
     1 ULX         1 TEMP              0 ****  ****    0 ROOT
