@<TRIPOS>MOLECULE
ULY
   67    72     1     0     0
SMALL
abcg2


@<TRIPOS>ATOM
      1 N01         -1.3990    29.5240    30.7640 nc         1 ULY      -0.784000
      2 C02         -2.2200    30.6010    30.9030 cc         1 ULY       0.364900
      3 C03         -1.8360    31.8090    31.3610 cd         1 ULY      -0.234000
      4 C04         -0.1300    29.6640    31.0560 cd         1 ULY       0.680900
      5 C05          0.4010    30.9270    31.4880 cd         1 ULY      -0.214000
      6 N06         -0.4980    31.9610    31.6730 na         1 ULY       0.098200
      7 C07          0.1900    33.0230    32.1520 cd         1 ULY       0.346800
      8 N08          1.4660    32.7220    32.2780 nc         1 ULY      -0.551300
      9 C09          1.6280    31.4450    31.8640 cc         1 ULY       0.104400
     10 C10         -0.4550    34.3180    32.5030 c6         1 ULY      -0.091000
     11 N11          0.6870    28.6020    30.9430 nv         1 ULY      -1.058900
     12 C12          0.5480    35.4750    32.5040 c6         1 ULY      -0.063400
     13 C13         -0.1230    36.7870    32.9010 c6         1 ULY      -0.100400
     14 C14         -0.8090    36.6510    34.2550 c5         1 ULY       0.096700
     15 N15         -1.7010    35.5020    34.2280 n          1 ULY      -0.400800
     16 C16         -1.1440    34.2220    33.8780 c6         1 ULY       0.098000
     17 C17          2.9510    30.8120    31.8710 ca         1 ULY      -0.031800
     18 C18          3.6960    30.7730    33.0420 ca         1 ULY      -0.057000
     19 C19          4.9530    30.1900    33.0830 ca         1 ULY      -0.129000
     20 C20          5.4890    29.6440    31.9220 ca         1 ULY      -0.113600
     21 C21          4.7780    29.7130    30.7270 ca         1 ULY      -0.157000
     22 C22          3.5170    30.2960    30.6920 ca         1 ULY       0.145100
     23 O23          2.7840    30.4270    29.5780 os         1 ULY      -0.324100
     24 C24          3.2410    29.8240    28.3820 c3         1 ULY       0.144900
     25 C25          6.8390    29.0090    31.8730 c          1 ULY       0.627700
     26 O26          7.4850    28.9650    30.8430 o          1 ULY      -0.571100
     27 N27          7.2670    28.4790    33.0520 ns         1 ULY      -0.318900
     28 C28          8.4670    27.8440    33.3440 ca         1 ULY       0.481900
     29 N29          8.5020    27.3490    34.5730 nb         1 ULY      -0.720000
     30 C30          9.5960    26.7230    34.9800 ca         1 ULY       0.372900
     31 C31         10.7170    26.5550    34.1890 ca         1 ULY      -0.154000
     32 C32         10.6720    27.0810    32.9050 ca         1 ULY      -0.135300
     33 C33          9.5420    27.7380    32.4560 ca         1 ULY      -0.131000
     34 C34         11.8570    26.8960    32.0010 c3         1 ULY       0.357300
     35 F35         11.7820    27.6360    30.8950 f          1 ULY      -0.108000
     36 F36         11.9670    25.6180    31.6180 f          1 ULY      -0.108000
     37 F37         12.9970    27.2170    32.6200 f          1 ULY      -0.108000
     38 C38         -3.0040    35.8230    34.0760 c          1 ULY       0.559000
     39 C39         -3.1270    37.3280    34.1700 c5         1 ULY      -0.169400
     40 C40         -1.7500    37.8010    34.6310 c5         1 ULY      -0.083400
     41 O41         -3.9110    35.0320    33.8740 o          1 ULY      -0.553000
     42 H1          -3.2580    30.4460    30.6390 h4         1 ULY       0.031100
     43 H2          -2.4950    32.6520    31.4940 h4         1 ULY       0.163000
     44 H3          -1.2290    34.5350    31.7560 hc         1 ULY       0.063700
     45 H4           0.2600    27.7030    30.7940 hn         1 ULY       0.492500
     46 H5           1.5850    28.5940    31.3950 hn         1 ULY       0.492500
     47 H6           1.3550    35.2500    33.2070 hc         1 ULY       0.062200
     48 H7           1.0060    35.5670    31.5180 hc         1 ULY       0.062200
     49 H8           0.6190    37.5860    32.9470 hc         1 ULY       0.050700
     50 H9          -0.8610    37.0770    32.1450 hc         1 ULY       0.050700
     51 H10         -0.0460    36.4940    35.0230 h1         1 ULY       0.067700
     52 H11         -1.9390    33.4750    33.8850 h1         1 ULY       0.068700
     53 H12         -0.4080    33.9280    34.6320 h1         1 ULY       0.068700
     54 H13          3.2750    31.1950    33.9450 ha         1 ULY       0.133000
     55 H14          5.4980    30.1950    34.0170 ha         1 ULY       0.122000
     56 H15          5.2260    29.3120    29.8280 ha         1 ULY       0.143000
     57 H16          2.4810    30.0230    27.6310 h1         1 ULY       0.046033
     58 H17          4.1890    30.2510    28.0470 h1         1 ULY       0.046033
     59 H18          3.3560    28.7430    28.4920 h1         1 ULY       0.046033
     60 H19          6.6200    28.4590    33.8260 hn         1 ULY       0.174000
     61 H20          9.5790    26.3350    35.9920 h4         1 ULY       0.028100
     62 H21         11.5810    26.0340    34.5770 ha         1 ULY       0.142000
     63 H22          9.4840    28.1520    31.4640 ha         1 ULY       0.174000
     64 H23         -3.9380    37.6150    34.8390 hc         1 ULY       0.076700
     65 H24         -1.7420    37.9470    35.7110 hc         1 ULY       0.058200
     66 H25         -3.3850    37.7040    33.1760 hc         1 ULY       0.076700
     67 H26         -1.4440    38.7390    34.1700 hc         1 ULY       0.058200
@<TRIPOS>BOND
     1     1     2 1   
     2     1     4 2   
     3     2     3 2   
     4     2    42 1   
     5     3     6 1   
     6     3    43 1   
     7     4     5 1   
     8     4    11 1   
     9     5     6 1   
    10     5     9 2   
    11     6     7 1   
    12     7     8 2   
    13     7    10 1   
    14     8     9 1   
    15     9    17 1   
    16    10    12 1   
    17    10    16 1   
    18    10    44 1   
    19    11    45 1   
    20    11    46 1   
    21    12    13 1   
    22    12    47 1   
    23    12    48 1   
    24    13    14 1   
    25    13    49 1   
    26    13    50 1   
    27    14    15 1   
    28    14    40 1   
    29    14    51 1   
    30    15    16 1   
    31    15    38 1   
    32    16    52 1   
    33    16    53 1   
    34    17    18 ar  
    35    17    22 ar  
    36    18    19 ar  
    37    18    54 1   
    38    19    20 ar  
    39    19    55 1   
    40    20    21 ar  
    41    20    25 1   
    42    21    22 ar  
    43    21    56 1   
    44    22    23 1   
    45    23    24 1   
    46    24    57 1   
    47    24    58 1   
    48    24    59 1   
    49    25    26 2   
    50    25    27 1   
    51    27    28 1   
    52    27    60 1   
    53    28    29 ar  
    54    28    33 ar  
    55    29    30 ar  
    56    30    31 ar  
    57    30    61 1   
    58    31    32 ar  
    59    31    62 1   
    60    32    33 ar  
    61    32    34 1   
    62    33    63 1   
    63    34    35 1   
    64    34    36 1   
    65    34    37 1   
    66    38    39 1   
    67    38    41 2   
    68    39    40 1   
    69    39    64 1   
    70    39    66 1   
    71    40    65 1   
    72    40    67 1   
@<TRIPOS>SUBSTRUCTURE
     1 ULY         1 TEMP              0 ****  ****    0 ROOT
