@<TRIPOS>MOLECULE
ULY
   67    72     1     0     0
SMALL
No Charge or Current Charge


@<TRIPOS>ATOM
      1 N01         -1.2400    29.2960    30.7910 nc         1 ULY      -0.784000
      2 C02         -2.1700    30.3160    31.0170 cc         1 ULY       0.364900
      3 C03         -1.8540    31.6240    31.4000 cd         1 ULY      -0.234000
      4 C04          0.0150    29.6200    30.9650 cd         1 ULY       0.680900
      5 C05          0.4080    30.9250    31.3280 cd         1 ULY      -0.214000
      6 N06         -0.4910    31.9050    31.4680 na         1 ULY       0.098200
      7 C07          0.0980    33.0480    31.9910 cd         1 ULY       0.346800
      8 N08          1.4100    32.8040    32.1090 nc         1 ULY      -0.551300
      9 C09          1.5990    31.5140    31.6630 cc         1 ULY       0.104400
     10 C10         -0.5840    34.3360    32.4200 c6         1 ULY      -0.091000
     11 N11          0.8420    28.5880    30.8480 nv         1 ULY      -1.058900
     12 C12          0.2850    35.6060    32.1300 c6         1 ULY      -0.063400
     13 C13         -0.4110    36.9020    32.6380 c6         1 ULY      -0.100400
     14 C14         -0.7260    36.7710    34.1480 c5         1 ULY       0.096700
     15 N15         -1.5330    35.5580    34.3350 n          1 ULY      -0.400800
     16 C16         -0.9770    34.2570    33.9210 c6         1 ULY       0.098000
     17 C17          2.8790    30.8090    31.6790 ca         1 ULY      -0.031800
     18 C18          3.5170    30.5740    32.9090 ca         1 ULY      -0.057000
     19 C19          4.7510    29.9060    32.9600 ca         1 ULY      -0.129000
     20 C20          5.3840    29.4660    31.7720 ca         1 ULY      -0.113600
     21 C21          4.7440    29.7260    30.5360 ca         1 ULY      -0.157000
     22 C22          3.5020    30.3990    30.4820 ca         1 ULY       0.145100
     23 O23          2.8740    30.6820    29.2820 os         1 ULY      -0.324100
     24 C24          3.4130    30.2820    28.0100 c3         1 ULY       0.144900
     25 C25          6.7220    28.7400    31.7900 c          1 ULY       0.627700
     26 O26          7.2620    28.3660    30.7560 o          1 ULY      -0.571100
     27 N27          7.2740    28.5240    33.0320 ns         1 ULY      -0.318900
     28 C28          8.4740    27.9150    33.4140 ca         1 ULY       0.481900
     29 N29          8.4860    27.6860    34.7420 nb         1 ULY      -0.720000
     30 C30          9.5860    27.0970    35.2650 ca         1 ULY       0.372900
     31 C31         10.6990    26.7260    34.4910 ca         1 ULY      -0.154000
     32 C32         10.7000    26.9750    33.1010 ca         1 ULY      -0.135300
     33 C33          9.5470    27.5840    32.5600 ca         1 ULY      -0.131000
     34 C34         11.8870    26.5890    32.2100 c3         1 ULY       0.357300
     35 F35         12.1000    27.4950    31.2290 f          1 ULY      -0.108000
     36 F36         11.6810    25.3960    31.6090 f          1 ULY      -0.108000
     37 F37         13.0440    26.4880    32.9030 f          1 ULY      -0.108000
     38 C38         -2.8530    35.7560    34.7260 c          1 ULY       0.559000
     39 C39         -3.0650    37.2610    34.5920 c5         1 ULY      -0.169400
     40 C40         -1.6450    37.8640    34.7890 c5         1 ULY      -0.083400
     41 O41         -3.5780    34.9040    35.2210 o          1 ULY      -0.553000
     42 H1          -3.1990    30.0050    30.8940 h4         1 ULY       0.031100
     43 H2          -2.5740    32.4030    31.6080 h4         1 ULY       0.163000
     44 H3          -1.5100    34.4490    31.8420 hc         1 ULY       0.063700
     45 H4           0.3900    27.6840    30.8830 hn         1 ULY       0.492500
     46 H5           1.7440    28.6680    31.2980 hn         1 ULY       0.492500
     47 H6           1.2660    35.5120    32.6170 hc         1 ULY       0.062200
     48 H7           0.4810    35.6880    31.0520 hc         1 ULY       0.062200
     49 H8           0.2360    37.7730    32.4650 hc         1 ULY       0.050700
     50 H9          -1.3360    37.0750    32.0710 hc         1 ULY       0.050700
     51 H10          0.2250    36.7000    34.6950 h1         1 ULY       0.067700
     52 H11         -1.7110    33.4530    34.0800 h1         1 ULY       0.068700
     53 H12         -0.0910    34.0330    34.5320 h1         1 ULY       0.068700
     54 H13          3.0470    30.9080    33.8310 ha         1 ULY       0.133000
     55 H14          5.2020    29.7420    33.9360 ha         1 ULY       0.122000
     56 H15          5.2290    29.4010    29.6200 ha         1 ULY       0.143000
     57 H16          2.7480    30.6040    27.1980 h1         1 ULY       0.046033
     58 H17          4.3970    30.7380    27.8410 h1         1 ULY       0.046033
     59 H18          3.5130    29.1910    27.9540 h1         1 ULY       0.046033
     60 H19          6.7210    28.8430    33.8120 hn         1 ULY       0.174000
     61 H20          9.5740    26.9140    36.3390 h4         1 ULY       0.028100
     62 H21         11.5450    26.2510    34.9800 ha         1 ULY       0.142000
     63 H22          9.4970    27.7990    31.4990 ha         1 ULY       0.174000
     64 H23         -3.8390    37.6250    35.2760 hc         1 ULY       0.076700
     65 H24         -1.4200    37.9740    35.8560 hc         1 ULY       0.058200
     66 H25         -3.3820    37.4550    33.5620 hc         1 ULY       0.076700
     67 H26         -1.5260    38.8500    34.3270 hc         1 ULY       0.058200
@<TRIPOS>BOND
     1     1     2 1   
     2     1     4 2   
     3     2     3 2   
     4     2    42 1   
     5     3     6 1   
     6     3    43 1   
     7     4     5 1   
     8     4    11 1   
     9     5     6 1   
    10     5     9 2   
    11     6     7 1   
    12     7     8 2   
    13     7    10 1   
    14     8     9 1   
    15     9    17 1   
    16    10    12 1   
    17    10    16 1   
    18    10    44 1   
    19    11    45 1   
    20    11    46 1   
    21    12    13 1   
    22    12    47 1   
    23    12    48 1   
    24    13    14 1   
    25    13    49 1   
    26    13    50 1   
    27    14    15 1   
    28    14    40 1   
    29    14    51 1   
    30    15    16 1   
    31    15    38 1   
    32    16    52 1   
    33    16    53 1   
    34    17    18 ar  
    35    17    22 ar  
    36    18    19 ar  
    37    18    54 1   
    38    19    20 ar  
    39    19    55 1   
    40    20    21 ar  
    41    20    25 1   
    42    21    22 ar  
    43    21    56 1   
    44    22    23 1   
    45    23    24 1   
    46    24    57 1   
    47    24    58 1   
    48    24    59 1   
    49    25    26 2   
    50    25    27 1   
    51    27    28 1   
    52    27    60 1   
    53    28    29 ar  
    54    28    33 ar  
    55    29    30 ar  
    56    30    31 ar  
    57    30    61 1   
    58    31    32 ar  
    59    31    62 1   
    60    32    33 ar  
    61    32    34 1   
    62    33    63 1   
    63    34    35 1   
    64    34    36 1   
    65    34    37 1   
    66    38    39 1   
    67    38    41 2   
    68    39    40 1   
    69    39    64 1   
    70    39    66 1   
    71    40    65 1   
    72    40    67 1   
@<TRIPOS>SUBSTRUCTURE
     1 ULY         1 TEMP              0 ****  ****    0 ROOT
