@<TRIPOS>MOLECULE
ULZ
   43    46     1     0     0
SMALL
abcg2


@<TRIPOS>ATOM
      1 C7          -9.3060    15.4820     0.8870 c3         1 ULZ       0.005800
      2 C9          -7.1170    16.2240     1.8760 ca         1 ULZ       0.169300
      3 N1         -11.8320    17.0540     3.0660 na         1 ULZ      -0.219700
      4 C2         -10.4410    20.4510     2.6570 ca         1 ULZ      -0.072000
      5 N2          -5.6340    18.4670     2.3010 nb         1 ULZ      -0.243000
      6 C10         -6.2000    16.6270     0.9050 ca         1 ULZ      -0.290000
      7 C4         -11.1420    18.1800     2.7350 ca         1 ULZ      -0.043200
      8 N3          -6.7220    18.7110     4.3200 nh         1 ULZ      -0.760300
      9 C6         -10.2040    16.3780     1.6760 cc         1 ULZ      -0.128400
     10 C1          -9.4180    20.0740     1.7730 ca         1 ULZ      -0.047900
     11 C11         -5.4710    17.7640     1.1910 ca         1 ULZ       0.147900
     12 C12         -6.5360    18.0050     3.1720 ca         1 ULZ       0.387900
     13 C13         -7.9140    18.5150     5.1260 c6         1 ULZ       0.181800
     14 C14         -7.6280    18.8720     6.5720 c6         1 ULZ       0.142100
     15 C15         -5.9030    20.2940     5.9730 c6         1 ULZ       0.142100
     16 C16         -6.1020    20.0120     4.4950 c6         1 ULZ       0.181800
     17 C17        -10.1090    17.7970     1.8510 ca         1 ULZ      -0.084800
     18 C18         -9.2370    18.7730     1.3550 ca         1 ULZ      -0.031000
     19 C3         -11.3200    19.5020     3.1390 ca         1 ULZ      -0.129000
     20 C5         -11.2700    15.9820     2.4340 cd         1 ULZ      -0.156100
     21 C8          -8.0230    15.0580     1.6330 c3         1 ULZ      -0.132700
     22 N4          -7.2610    16.8930     3.0070 nb         1 ULZ      -0.238000
     23 O1          -7.1030    20.1730     6.7000 os         1 ULZ      -0.447000
     24 BR1         -8.2320    21.4170     1.1500 br         1 ULZ      -0.110100
     25 H5          -9.0260    15.9580    -0.0570 hc         1 ULZ       0.046700
     26 H6          -9.8490    14.5730     0.6190 hc         1 ULZ       0.046700
     27 H3         -12.6350    17.0150     3.6720 hn         1 ULZ       0.352000
     28 H1         -10.5490    21.4820     2.9620 ha         1 ULZ       0.128000
     29 H9          -6.0700    16.0820    -0.0190 ha         1 ULZ       0.131000
     30 H10         -4.7290    18.1350     0.4920 h4         1 ULZ       0.019100
     31 H11         -8.7340    19.1360     4.7410 h1         1 ULZ       0.066200
     32 H12         -8.2330    17.4780     5.0690 h1         1 ULZ       0.066200
     33 H14         -8.5540    18.8330     7.1470 h1         1 ULZ       0.050950
     34 H13         -6.9340    18.1340     7.0000 h1         1 ULZ       0.050950
     35 H16         -5.1400    19.6100     6.3730 h1         1 ULZ       0.050950
     36 H15         -5.5390    21.3140     6.1020 h1         1 ULZ       0.050950
     37 H18         -5.1370    20.0310     3.9960 h1         1 ULZ       0.066200
     38 H17         -6.7230    20.7960     4.0430 h1         1 ULZ       0.066200
     39 H19         -8.4430    18.5080     0.6680 ha         1 ULZ       0.131000
     40 H2         -12.1140    19.7830     3.8190 ha         1 ULZ       0.117000
     41 H4         -11.6760    14.9910     2.5720 h4         1 ULZ       0.212000
     42 H8          -8.2940    14.5930     2.5820 hc         1 ULZ       0.059200
     43 H7          -7.5040    14.3110     1.0290 hc         1 ULZ       0.059200
@<TRIPOS>BOND
     1     1     9 1   
     2     1    21 1   
     3     1    25 1   
     4     1    26 1   
     5     2     6 ar  
     6     2    21 1   
     7     2    22 ar  
     8     3     7 1   
     9     3    20 1   
    10     3    27 1   
    11     4    10 ar  
    12     4    19 ar  
    13     4    28 1   
    14     5    11 ar  
    15     5    12 ar  
    16     6    11 ar  
    17     6    29 1   
    18     7    17 ar  
    19     7    19 ar  
    20     8    12 1   
    21     8    13 1   
    22     8    16 1   
    23     9    17 1   
    24     9    20 2   
    25    10    18 ar  
    26    10    24 1   
    27    11    30 1   
    28    12    22 ar  
    29    13    14 1   
    30    13    31 1   
    31    13    32 1   
    32    14    23 1   
    33    14    33 1   
    34    14    34 1   
    35    15    16 1   
    36    15    23 1   
    37    15    35 1   
    38    15    36 1   
    39    16    37 1   
    40    16    38 1   
    41    17    18 ar  
    42    18    39 1   
    43    19    40 1   
    44    20    41 1   
    45    21    42 1   
    46    21    43 1   
@<TRIPOS>SUBSTRUCTURE
     1 ULZ         1 TEMP              0 ****  ****    0 ROOT
