@<TRIPOS>MOLECULE
ULZ
   43    46     1     0     0
SMALL
No Charge or Current Charge


@<TRIPOS>ATOM
      1 C7          -9.3800    15.4940     0.7990 c3         1 ULZ       0.005800
      2 C9          -7.1120    16.2080     1.7490 ca         1 ULZ       0.169300
      3 N1         -11.8340    17.0370     3.2010 na         1 ULZ      -0.219700
      4 C2         -10.3320    20.4250     2.7260 ca         1 ULZ      -0.072000
      5 N2          -5.5260    18.4010     2.2680 nb         1 ULZ      -0.243000
      6 C10         -6.1860    16.6370     0.7850 ca         1 ULZ      -0.290000
      7 C4         -11.0920    18.1350     2.8070 ca         1 ULZ      -0.043200
      8 N3          -6.6360    18.6400     4.3530 nh         1 ULZ      -0.760300
      9 C6         -10.2560    16.3570     1.6750 cc         1 ULZ      -0.128400
     10 C1          -9.3610    20.0500     1.7690 ca         1 ULZ      -0.047900
     11 C11         -5.3930    17.7510     1.0970 ca         1 ULZ       0.147900
     12 C12         -6.4460    17.9240     3.1370 ca         1 ULZ       0.387900
     13 C13         -7.9050    18.4540     5.1500 c6         1 ULZ       0.181800
     14 C14         -7.8040    18.9990     6.6050 c6         1 ULZ       0.142100
     15 C15         -5.9830    20.4520     6.0400 c6         1 ULZ       0.142100
     16 C16         -5.9890    19.9880     4.5530 c6         1 ULZ       0.181800
     17 C17        -10.1500    17.7760     1.8840 ca         1 ULZ      -0.084800
     18 C18         -9.2700    18.7150     1.3260 ca         1 ULZ      -0.031000
     19 C3         -11.2180    19.4590     3.2520 ca         1 ULZ      -0.129000
     20 C5         -11.3010    15.9330     2.4910 cd         1 ULZ      -0.156100
     21 C8          -8.0620    15.0520     1.4800 c3         1 ULZ      -0.132700
     22 N4          -7.2280    16.8420     2.9320 nb         1 ULZ      -0.238000
     23 O1          -7.3030    20.3530     6.6180 os         1 ULZ      -0.447000
     24 Br1         -8.1440    21.3560     1.0860 br         1 ULZ      -0.110100
     25 H5          -9.1460    16.0250    -0.1310 hc         1 ULZ       0.046700
     26 H6          -9.9390    14.5970     0.5050 hc         1 ULZ       0.046700
     27 H3         -12.5980    17.0240     3.8690 hn         1 ULZ       0.352000
     28 H1         -10.3950    21.4570     3.0620 ha         1 ULZ       0.128000
     29 H9          -6.0910    16.1330    -0.1730 ha         1 ULZ       0.131000
     30 H10         -4.6560    18.1390     0.3960 h4         1 ULZ       0.019100
     31 H11         -8.7370    18.9630     4.6440 h1         1 ULZ       0.066200
     32 H12         -8.1750    17.3900     5.2210 h1         1 ULZ       0.066200
     33 H14         -8.7950    18.9760     7.0790 h1         1 ULZ       0.050950
     34 H13         -7.1310    18.3600     7.1960 h1         1 ULZ       0.050950
     35 H16         -5.2880    19.8300     6.6220 h1         1 ULZ       0.050950
     36 H15         -5.6390    21.4940     6.1030 h1         1 ULZ       0.050950
     37 H18         -4.9430    19.9740     4.2140 h1         1 ULZ       0.066200
     38 H17         -6.5140    20.7450     3.9530 h1         1 ULZ       0.066200
     39 H19         -8.5250    18.4220     0.5920 ha         1 ULZ       0.131000
     40 H2         -11.9670    19.7340     3.9900 ha         1 ULZ       0.117000
     41 H4         -11.6900    14.9270     2.6280 h4         1 ULZ       0.212000
     42 H8          -8.3010    14.5280     2.4140 hc         1 ULZ       0.059200
     43 H7          -7.5670    14.3140     0.8380 hc         1 ULZ       0.059200
@<TRIPOS>BOND
     1     1     9 1   
     2     1    21 1   
     3     1    25 1   
     4     1    26 1   
     5     2     6 ar  
     6     2    21 1   
     7     2    22 ar  
     8     3     7 1   
     9     3    20 1   
    10     3    27 1   
    11     4    10 ar  
    12     4    19 ar  
    13     4    28 1   
    14     5    11 ar  
    15     5    12 ar  
    16     6    11 ar  
    17     6    29 1   
    18     7    17 ar  
    19     7    19 ar  
    20     8    12 1   
    21     8    13 1   
    22     8    16 1   
    23     9    17 1   
    24     9    20 2   
    25    10    18 ar  
    26    10    24 1   
    27    11    30 1   
    28    12    22 ar  
    29    13    14 1   
    30    13    31 1   
    31    13    32 1   
    32    14    23 1   
    33    14    33 1   
    34    14    34 1   
    35    15    16 1   
    36    15    23 1   
    37    15    35 1   
    38    15    36 1   
    39    16    37 1   
    40    16    38 1   
    41    17    18 ar  
    42    18    39 1   
    43    19    40 1   
    44    20    41 1   
    45    21    42 1   
    46    21    43 1   
@<TRIPOS>SUBSTRUCTURE
     1 ULZ         1 TEMP              0 ****  ****    0 ROOT
