@<TRIPOS>MOLECULE
UM0
   48    48     1     0     0
SMALL
bcc


@<TRIPOS>ATOM
      1 O1           2.5900    -1.5610    -1.7170 oh         1 UM0      -0.615800
      2 C1           2.8010    -1.4770    -0.3440 c6         1 UM0       0.318900
      3 C2           1.5880    -0.7860     0.2790 c6         1 UM0       0.070700
      4 N2           0.3650    -1.4670    -0.0530 ns         1 UM0      -0.572900
      5 CBC         -0.3970    -2.1390     0.8350 c          1 UM0       0.679100
      6 CBE         -1.5930    -2.8330     0.2320 c3         1 UM0      -0.183100
      7 OBD         -0.1310    -2.2160     2.0250 o          1 UM0      -0.612100
      8 O5           3.9700    -0.7830    -0.0150 os         1 UM0      -0.425600
      9 C5           4.0190     0.5700    -0.4370 c6         1 UM0       0.120100
     10 C6           5.3570     1.1250     0.0010 c3         1 UM0       0.143400
     11 O6           6.3830     0.4500    -0.6840 oh         1 UM0      -0.584800
     12 C4           2.8560     1.3730     0.1630 c6         1 UM0       0.113100
     13 O4           2.8130     2.6660    -0.3920 oh         1 UM0      -0.587800
     14 C3           1.5310     0.6850    -0.1370 c6         1 UM0       0.143100
     15 O3           0.5070     1.3450     0.5590 os         1 UM0      -0.386600
     16 CBN         -0.6680     1.6500    -0.1560 c3         1 UM0       0.075100
     17 CBQ         -0.8700     3.1580    -0.1950 c3         1 UM0      -0.100100
     18 CBO         -1.8540     0.9910     0.5470 c          1 UM0       0.642100
     19 OBP         -1.9600     1.0190     1.7660 o          1 UM0      -0.618100
     20 N           -2.7600     0.4560    -0.2730 ns         1 UM0      -0.544900
     21 CBA         -4.0010    -0.1500     0.1510 c3         1 UM0      -0.043300
     22 CBB         -5.0300     0.8980     0.5730 c3         1 UM0      -0.078100
     23 C           -4.5540    -1.0320    -0.9950 c          1 UM0       0.921600
     24 O           -3.9320    -1.0220    -2.0760 o          1 UM0      -0.833300
     25 OXT         -5.5880    -1.6700    -0.7300 o          1 UM0      -0.833300
     26 HO1          3.1990    -2.2060    -2.0940 ho         1 UM0       0.412000
     27 H1           2.9260    -2.4710     0.1000 h2         1 UM0       0.072700
     28 H2           1.7060    -0.8350     1.3630 h1         1 UM0       0.107700
     29 HN2          0.1010    -1.5030    -1.0250 hn         1 UM0       0.324500
     30 HBE         -1.3350    -3.8730     0.0250 hc         1 UM0       0.072367
     31 HBEA        -2.4180    -2.8320     0.9410 hc         1 UM0       0.072367
     32 HBEB        -1.9270    -2.3750    -0.6970 hc         1 UM0       0.072367
     33 H5           3.9510     0.6380    -1.5320 h1         1 UM0       0.069700
     34 H6           5.3720     2.2000    -0.2120 h1         1 UM0       0.022200
     35 H6A          5.4480     1.0130     1.0910 h1         1 UM0       0.022200
     36 HO6          7.2210     0.8490    -0.4320 ho         1 UM0       0.396000
     37 H4           2.9830     1.4120     1.2550 h1         1 UM0       0.053700
     38 HO4          3.2530     3.2790     0.2020 ho         1 UM0       0.401000
     39 H3           1.3600     0.7470    -1.2220 h1         1 UM0       0.059700
     40 HBN         -0.5950     1.2790    -1.1850 h1         1 UM0       0.040700
     41 HBQ         -0.0280     3.6350    -0.6960 hc         1 UM0       0.042700
     42 HBQA        -1.7810     3.4130    -0.7360 hc         1 UM0       0.042700
     43 HBQB        -0.9480     3.5650     0.8140 hc         1 UM0       0.042700
     44 HN          -2.5690     0.3680    -1.2620 hn         1 UM0       0.334500
     45 HBA         -3.8040    -0.8040     1.0070 h1         1 UM0       0.051700
     46 HBB         -5.2710     1.5630    -0.2590 hc         1 UM0       0.026033
     47 HBBA        -5.9480     0.4160     0.9030 hc         1 UM0       0.026033
     48 HBBB        -4.6520     1.5050     1.3950 hc         1 UM0       0.026033
@<TRIPOS>BOND
     1     1     2 1   
     2     1    26 1   
     3     2     3 1   
     4     2     8 1   
     5     2    27 1   
     6     3     4 1   
     7     3    14 1   
     8     3    28 1   
     9     4     5 1   
    10     4    29 1   
    11     5     6 1   
    12     5     7 2   
    13     6    30 1   
    14     6    31 1   
    15     6    32 1   
    16     8     9 1   
    17     9    10 1   
    18     9    12 1   
    19     9    33 1   
    20    10    11 1   
    21    10    34 1   
    22    10    35 1   
    23    11    36 1   
    24    12    13 1   
    25    12    14 1   
    26    12    37 1   
    27    13    38 1   
    28    14    15 1   
    29    14    39 1   
    30    15    16 1   
    31    16    17 1   
    32    16    18 1   
    33    16    40 1   
    34    17    41 1   
    35    17    42 1   
    36    17    43 1   
    37    18    19 2   
    38    18    20 1   
    39    20    21 1   
    40    20    44 1   
    41    21    22 1   
    42    21    23 1   
    43    21    45 1   
    44    22    46 1   
    45    22    47 1   
    46    22    48 1   
    47    23    24 1   
    48    23    25 1   
@<TRIPOS>SUBSTRUCTURE
     1 UM0         1 TEMP              0 ****  ****    0 ROOT
