@<TRIPOS>MOLECULE
UM0
   48    48     1     0     0
SMALL
No Charge or Current Charge


@<TRIPOS>ATOM
      1 O1           2.8800    -1.8120    -1.3590 oh         1 UM0      -0.678000
      2 C1           2.6360    -1.4510     0.0000 c6         1 UM0       0.365300
      3 C2           1.3680    -0.5380     0.1510 c6         1 UM0       0.070700
      4 N2           0.2080    -1.2230    -0.4770 ns         1 UM0      -0.505900
      5 CBC         -0.5350    -2.2170     0.1130 c          1 UM0       0.612100
      6 CBE         -1.5830    -2.8550    -0.7850 c3         1 UM0      -0.183100
      7 OBD         -0.3560    -2.5670     1.2700 o          1 UM0      -0.612100
      8 O5           3.8240    -0.8050     0.4850 os         1 UM0      -0.472000
      9 C5           4.1560     0.4570    -0.1550 c6         1 UM0       0.143300
     10 C6           5.5140     0.9650     0.4350 c3         1 UM0       0.166600
     11 O6           6.5900     0.0160     0.2930 oh         1 UM0      -0.707000
     12 C4           2.9940     1.4600     0.0790 c6         1 UM0       0.136300
     13 O4           3.2520     2.7470    -0.5170 oh         1 UM0      -0.710000
     14 C3           1.6520     0.8800    -0.4620 c6         1 UM0       0.166300
     15 O3           0.6300     1.8840    -0.1910 os         1 UM0      -0.433000
     16 CBN         -0.7270     1.6950    -0.6630 c3         1 UM0       0.098300
     17 CBQ         -1.2240     3.0960    -1.0770 c3         1 UM0      -0.100100
     18 CBO         -1.6620     1.0830     0.4290 c          1 UM0       0.575100
     19 OBP         -1.3850     1.0550     1.6240 o          1 UM0      -0.618100
     20 N           -2.8210     0.5100    -0.0620 ns         1 UM0      -0.477900
     21 CBA         -3.8790    -0.1330     0.7550 c3         1 UM0      -0.043300
     22 CBB         -4.7210     0.9160     1.5150 c3         1 UM0      -0.078100
     23 C           -4.7820    -1.0550    -0.1240 c          1 UM0       0.711000
     24 O           -5.0130    -0.7160    -1.2780 o          1 UM0      -0.728000
     25 OXT         -5.1330    -2.1300     0.3400 o          1 UM0      -0.728000
     26 HO1          3.7430    -2.2760    -1.3420 ho         1 UM0       0.451000
     27 H1           2.4700    -2.3660     0.5900 h2         1 UM0       0.072700
     28 H2           1.1650    -0.4140     1.2250 h1         1 UM0       0.107700
     29 HN2          0.0360    -1.0640    -1.4630 hn         1 UM0       0.324500
     30 HBE         -1.0730    -3.3350    -1.6260 hc         1 UM0       0.072367
     31 HBEA        -2.2180    -3.5690    -0.2480 hc         1 UM0       0.072367
     32 HBEB        -2.1680    -2.0730    -1.2810 hc         1 UM0       0.072367
     33 H5           4.2950     0.3010    -1.2350 h1         1 UM0       0.069700
     34 H6           5.7810     1.9030    -0.0690 h1         1 UM0       0.022200
     35 H6A          5.3600     1.1990     1.4970 h1         1 UM0       0.022200
     36 HO6          7.3710     0.3990     0.7550 ho         1 UM0       0.495000
     37 H4           2.8830     1.5830     1.1670 h1         1 UM0       0.053700
     38 HO4          2.3760     3.2020    -0.5300 ho         1 UM0       0.500000
     39 H3           1.7430     0.7710    -1.5530 h1         1 UM0       0.059700
     40 HBN         -0.7480     1.0500    -1.5510 h1         1 UM0       0.040700
     41 HBQ         -0.5730     3.5230    -1.8490 hc         1 UM0       0.042700
     42 HBQA        -2.2410     3.0410    -1.4840 hc         1 UM0       0.042700
     43 HBQB        -1.2360     3.7750    -0.2160 hc         1 UM0       0.042700
     44 HN          -2.9750     0.5680    -1.0640 hn         1 UM0       0.334500
     45 HBA         -3.3860    -0.7800     1.4930 h1         1 UM0       0.051700
     46 HBB         -5.2260     1.5900     0.8120 hc         1 UM0       0.026033
     47 HBBA        -5.4850     0.4220     2.1260 hc         1 UM0       0.026033
     48 HBBB        -4.0930     1.5190     2.1800 hc         1 UM0       0.026033
@<TRIPOS>BOND
     1     1     2 1   
     2     1    26 1   
     3     2     3 1   
     4     2     8 1   
     5     2    27 1   
     6     3     4 1   
     7     3    14 1   
     8     3    28 1   
     9     4     5 1   
    10     4    29 1   
    11     5     6 1   
    12     5     7 2   
    13     6    30 1   
    14     6    31 1   
    15     6    32 1   
    16     8     9 1   
    17     9    10 1   
    18     9    12 1   
    19     9    33 1   
    20    10    11 1   
    21    10    34 1   
    22    10    35 1   
    23    11    36 1   
    24    12    13 1   
    25    12    14 1   
    26    12    37 1   
    27    13    38 1   
    28    14    15 1   
    29    14    39 1   
    30    15    16 1   
    31    16    17 1   
    32    16    18 1   
    33    16    40 1   
    34    17    41 1   
    35    17    42 1   
    36    17    43 1   
    37    18    19 2   
    38    18    20 1   
    39    20    21 1   
    40    20    44 1   
    41    21    22 1   
    42    21    23 1   
    43    21    45 1   
    44    22    46 1   
    45    22    47 1   
    46    22    48 1   
    47    23    24 1   
    48    23    25 1   
@<TRIPOS>SUBSTRUCTURE
     1 UM0         1 TEMP              0 ****  ****    0 ROOT
