@<TRIPOS>MOLECULE
UM1
   29    28     1     0     0
SMALL
No Charge or Current Charge


@<TRIPOS>ATOM
      1 NCF          5.8600    -0.6000    -0.4180 n8         1 UM1      -0.976200
      2 CCG          4.5830    -0.6020     0.3810 c3         1 UM1       0.065800
      3 CCR          3.3970     0.2830    -0.1380 c          1 UM1       0.600100
      4 OCS          3.5460     1.2260    -0.9080 o          1 UM1      -0.616100
      5 NCT          2.1540    -0.0800     0.3380 ns         1 UM1      -0.489900
      6 CCU          0.8780     0.5960     0.0120 c3         1 UM1       0.024700
      7 CCV          0.7480     1.9280     0.7890 c3         1 UM1      -0.106100
      8 CCW         -0.3250    -0.3570     0.2870 c          1 UM1       0.580100
      9 OCX         -0.2060    -1.4330     0.8650 o          1 UM1      -0.670100
     10 NCY         -1.5460     0.0970    -0.1700 ns         1 UM1      -0.450900
     11 CCZ         -2.8340    -0.6290    -0.0580 c3         1 UM1      -0.046300
     12 CDA         -2.9370    -1.7630    -1.1020 c3         1 UM1      -0.079100
     13 CDB         -4.0350     0.3620    -0.1710 c          1 UM1       0.715000
     14 ODC         -3.9500     1.2930    -0.9610 o          1 UM1      -0.723500
     15 ODB         -4.9630     0.2340     0.6160 o          1 UM1      -0.723500
     16 HNCF         6.2220     0.3610    -0.4720 hn         1 UM1       0.395500
     17 HNCA         6.5900    -1.1100     0.0970 hn         1 UM1       0.395500
     18 HCG          4.2240    -1.6390     0.4450 h1         1 UM1       0.040200
     19 HCGA         4.8090    -0.2700     1.4030 h1         1 UM1       0.040200
     20 HNCT         2.1170    -0.8900     0.9480 hn         1 UM1       0.331500
     21 HCU          0.8670     0.8140    -1.0640 h1         1 UM1       0.084700
     22 HCV          0.7320     1.7460     1.8700 hc         1 UM1       0.044033
     23 HCVA         1.5890     2.5950     0.5660 hc         1 UM1       0.044033
     24 HCVB        -0.1750     2.4530     0.5170 hc         1 UM1       0.044033
     25 HNCY        -1.5550     1.0020    -0.6300 hn         1 UM1       0.344500
     26 HCZ         -2.8820    -1.0770     0.9430 h1         1 UM1       0.050700
     27 HDA         -2.1220    -2.4860    -0.9770 hc         1 UM1       0.026367
     28 HDAA        -3.8870    -2.3000    -0.9910 hc         1 UM1       0.026367
     29 HDAB        -2.8870    -1.3600    -2.1210 hc         1 UM1       0.026367
@<TRIPOS>BOND
     1     1     2 1   
     2     1    16 1   
     3     1    17 1   
     4     2     3 1   
     5     2    18 1   
     6     2    19 1   
     7     3     4 2   
     8     3     5 1   
     9     5     6 1   
    10     5    20 1   
    11     6     7 1   
    12     6     8 1   
    13     6    21 1   
    14     7    22 1   
    15     7    23 1   
    16     7    24 1   
    17     8     9 2   
    18     8    10 1   
    19    10    11 1   
    20    10    25 1   
    21    11    12 1   
    22    11    13 1   
    23    11    26 1   
    24    12    27 1   
    25    12    28 1   
    26    12    29 1   
    27    13    14 1   
    28    13    15 1   
@<TRIPOS>SUBSTRUCTURE
     1 UM1         1 TEMP              0 ****  ****    0 ROOT
