@<TRIPOS>MOLECULE
UM1
   29    28     1     0     0
SMALL
bcc


@<TRIPOS>ATOM
      1 NCF          5.5050    -0.5650    -0.7120 n8         1 UM1      -0.865800
      2 CCG          4.4370    -0.5960     0.2660 c3         1 UM1       0.065800
      3 CCR          3.2670     0.2580    -0.1860 c          1 UM1       0.667100
      4 OCS          3.4130     1.2120    -0.9370 o          1 UM1      -0.616100
      5 NCT          2.0810    -0.0950     0.3340 ns         1 UM1      -0.556900
      6 CCU          0.8720     0.6730     0.1580 c3         1 UM1       0.024700
      7 CCV          0.7890     1.8430     1.1410 c3         1 UM1      -0.106100
      8 CCW         -0.3180    -0.2580     0.3760 c          1 UM1       0.647100
      9 OCX         -0.2400    -1.2100     1.1460 o          1 UM1      -0.670100
     10 NCY         -1.4220     0.0860    -0.2810 ns         1 UM1      -0.517900
     11 CCZ         -2.7160    -0.5400    -0.1140 c3         1 UM1      -0.046300
     12 CDA         -2.7980    -1.8870    -0.8300 c3         1 UM1      -0.079100
     13 CDB         -3.8110     0.4200    -0.6410 c          1 UM1       0.925600
     14 ODC         -3.4300     1.4630    -1.2090 o          1 UM1      -0.828800
     15 ODB         -4.9820     0.0470    -0.4570 o          1 UM1      -0.828800
     16 HNCF         5.8500     0.3820    -0.8030 hn         1 UM1       0.340300
     17 HNCA         6.2820    -1.1100    -0.3620 hn         1 UM1       0.340300
     18 HCG          4.1070    -1.6280     0.4070 h1         1 UM1       0.040200
     19 HCGA         4.7210    -0.2300     1.2640 h1         1 UM1       0.040200
     20 HNCT         2.0320    -0.8710     0.9770 hn         1 UM1       0.331500
     21 HCU          0.8530     1.0610    -0.8620 h1         1 UM1       0.084700
     22 HCV          0.7880     1.4810     2.1700 hc         1 UM1       0.044033
     23 HCVA         1.6420     2.5060     1.0110 hc         1 UM1       0.044033
     24 HCVB        -0.1170     2.4280     0.9840 hc         1 UM1       0.044033
     25 HNCY        -1.4330     0.9090    -0.8690 hn         1 UM1       0.344500
     26 HCZ         -2.8940    -0.7030     0.9540 h1         1 UM1       0.050700
     27 HDA         -2.0470    -2.5790    -0.4520 hc         1 UM1       0.026367
     28 HDAA        -3.7780    -2.3350    -0.6750 hc         1 UM1       0.026367
     29 HDAB        -2.6420    -1.7670    -1.9030 hc         1 UM1       0.026367
@<TRIPOS>BOND
     1     1     2 1   
     2     1    16 1   
     3     1    17 1   
     4     2     3 1   
     5     2    18 1   
     6     2    19 1   
     7     3     4 2   
     8     3     5 1   
     9     5     6 1   
    10     5    20 1   
    11     6     7 1   
    12     6     8 1   
    13     6    21 1   
    14     7    22 1   
    15     7    23 1   
    16     7    24 1   
    17     8     9 2   
    18     8    10 1   
    19    10    11 1   
    20    10    25 1   
    21    11    12 1   
    22    11    13 1   
    23    11    26 1   
    24    12    27 1   
    25    12    28 1   
    26    12    29 1   
    27    13    14 1   
    28    13    15 1   
@<TRIPOS>SUBSTRUCTURE
     1 UM1         1 TEMP              0 ****  ****    0 ROOT
