@<TRIPOS>MOLECULE
UM2
   26    25     1     0     0
SMALL
abcg2


@<TRIPOS>ATOM
      1 CCH          4.6730    -0.7060    -0.1440 c3         1 UM2      -0.088100
      2 CCI          3.5870     0.3580    -0.0750 c3         1 UM2      -0.073400
      3 CCJ          2.2040    -0.2270     0.1870 c3         1 UM2      -0.100400
      4 CCK          1.1360     0.8530     0.2980 c3         1 UM2       0.100000
      5 NCL         -0.1740     0.3180     0.5930 ns         1 UM2      -0.513900
      6 CCM         -1.1840     0.2330    -0.2870 c          1 UM2       0.598100
      7 OCN         -1.1250     0.6610    -1.4310 o          1 UM2      -0.574100
      8 CCO         -2.4280    -0.4750     0.2440 c3         1 UM2       0.088500
      9 CCP         -2.5800    -1.8080    -0.4790 c3         1 UM2      -0.089100
     10 NCQ         -3.5940     0.3530    -0.0110 n8         1 UM2      -0.974200
     11 HCH          5.6550    -0.2630    -0.3100 hc         1 UM2       0.032700
     12 HCHA         4.7220    -1.2780     0.7840 hc         1 UM2       0.032700
     13 HCHB         4.4880    -1.4110    -0.9560 hc         1 UM2       0.032700
     14 HCI          3.8280     1.0770     0.7140 hc         1 UM2       0.039200
     15 HCIA         3.5700     0.9280    -1.0090 hc         1 UM2       0.039200
     16 HCJ          1.9370    -0.9220    -0.6160 hc         1 UM2       0.043200
     17 HCJA         2.2240    -0.8130     1.1110 hc         1 UM2       0.043200
     18 HCK          1.4050     1.5590     1.0880 h1         1 UM2       0.056200
     19 HCKA         1.0740     1.4230    -0.6280 h1         1 UM2       0.056200
     20 HNCL        -0.3160    -0.0630     1.5140 hn         1 UM2       0.304500
     21 HCO         -2.2840    -0.6870     1.3140 h1         1 UM2       0.009700
     22 HCP         -1.7020    -2.4380    -0.3370 hc         1 UM2       0.047367
     23 HCPA        -3.4430    -2.3520    -0.0920 hc         1 UM2       0.047367
     24 HCPB        -2.7260    -1.6520    -1.5480 hc         1 UM2       0.047367
     25 HNCQ        -4.4210    -0.1500     0.2870 hn         1 UM2       0.397000
     26 HNCA        -3.5600     1.1850     0.5650 hn         1 UM2       0.397000
@<TRIPOS>BOND
     1     1     2 1   
     2     1    11 1   
     3     1    12 1   
     4     1    13 1   
     5     2     3 1   
     6     2    14 1   
     7     2    15 1   
     8     3     4 1   
     9     3    16 1   
    10     3    17 1   
    11     4     5 1   
    12     4    18 1   
    13     4    19 1   
    14     5     6 1   
    15     5    20 1   
    16     6     7 2   
    17     6     8 1   
    18     8     9 1   
    19     8    10 1   
    20     8    21 1   
    21     9    22 1   
    22     9    23 1   
    23     9    24 1   
    24    10    25 1   
    25    10    26 1   
@<TRIPOS>SUBSTRUCTURE
     1 UM2         1 TEMP              0 ****  ****    0 ROOT
