@<TRIPOS>MOLECULE
UM2
   26    25     1     0     0
SMALL
No Charge or Current Charge


@<TRIPOS>ATOM
      1 CCH          4.6450    -0.7290    -0.3240 c3         1 UM2      -0.088100
      2 CCI          3.6260     0.3820    -0.0050 c3         1 UM2      -0.073400
      3 CCJ          2.1880    -0.1500     0.1750 c3         1 UM2      -0.100400
      4 CCK          1.1710     0.9650     0.4950 c3         1 UM2       0.100000
      5 NCL         -0.1830     0.4380     0.6830 ns         1 UM2      -0.513900
      6 CCM         -1.0390     0.0750    -0.3390 c          1 UM2       0.598100
      7 OCN         -0.7310     0.2060    -1.5180 o          1 UM2      -0.574100
      8 CCO         -2.4280    -0.5040     0.1330 c3         1 UM2       0.088500
      9 CCP         -2.6410    -1.9380    -0.3950 c3         1 UM2      -0.089100
     10 NCQ         -3.6280     0.3370    -0.1800 n8         1 UM2      -0.974200
     11 HCH          5.6490    -0.3040    -0.4430 hc         1 UM2       0.032700
     12 HCHA         4.6790    -1.4690     0.4850 hc         1 UM2       0.032700
     13 HCHB         4.3780    -1.2440    -1.2550 hc         1 UM2       0.032700
     14 HCI          3.9390     0.9010     0.9100 hc         1 UM2       0.039200
     15 HCIA         3.6410     1.1230    -0.8140 hc         1 UM2       0.039200
     16 HCJ          1.8800    -0.6710    -0.7400 hc         1 UM2       0.043200
     17 HCJA         2.1750    -0.8900     0.9850 hc         1 UM2       0.043200
     18 HCK          1.4740     1.4830     1.4150 h1         1 UM2       0.056200
     19 HCKA         1.1600     1.7020    -0.3190 h1         1 UM2       0.056200
     20 HNCL        -0.5220     0.3040     1.6290 hn         1 UM2       0.304500
     21 HCO         -2.3850    -0.5720     1.2290 h1         1 UM2       0.009700
     22 HCP         -1.8070    -2.5830    -0.0940 hc         1 UM2       0.047367
     23 HCPA        -3.5650    -2.3710     0.0070 hc         1 UM2       0.047367
     24 HCPB        -2.7030    -1.9470    -1.4900 hc         1 UM2       0.047367
     25 HNCQ        -4.4610    -0.0850     0.2490 hn         1 UM2       0.397000
     26 HNCA        -3.5460     1.2440     0.2970 hn         1 UM2       0.397000
@<TRIPOS>BOND
     1     1     2 1   
     2     1    11 1   
     3     1    12 1   
     4     1    13 1   
     5     2     3 1   
     6     2    14 1   
     7     2    15 1   
     8     3     4 1   
     9     3    16 1   
    10     3    17 1   
    11     4     5 1   
    12     4    18 1   
    13     4    19 1   
    14     5     6 1   
    15     5    20 1   
    16     6     7 2   
    17     6     8 1   
    18     8     9 1   
    19     8    10 1   
    20     8    21 1   
    21     9    22 1   
    22     9    23 1   
    23     9    24 1   
    24    10    25 1   
    25    10    26 1   
@<TRIPOS>SUBSTRUCTURE
     1 UM2         1 TEMP              0 ****  ****    0 ROOT
