@<TRIPOS>MOLECULE
UM4
   71    77     1     0     0
SMALL
No Charge or Current Charge


@<TRIPOS>ATOM
      1 N01        -18.9190     4.9010   -18.5110 nc         1 UM4      -0.784000
      2 C02        -17.9630     5.0360   -19.5250 cc         1 UM4       0.365900
      3 C03        -16.6190     5.3740   -19.3260 cd         1 UM4      -0.235000
      4 C04        -18.4980     5.1330   -17.2960 cd         1 UM4       0.682900
      5 C05        -17.1610     5.4790   -17.0210 cd         1 UM4      -0.230000
      6 N06        -16.2590     5.5860   -17.9990 na         1 UM4       0.098200
      7 C07        -15.0010     5.8890   -17.4980 cd         1 UM4       0.345800
      8 N08        -15.1220     5.9960   -16.1670 nc         1 UM4      -0.533300
      9 C09        -16.4500     5.7550   -15.8850 cc         1 UM4       0.104400
     10 C10        -13.7150     6.1160   -18.2730 c6         1 UM4      -0.077000
     11 N11        -19.4310     4.9520   -16.3700 nv         1 UM4      -1.072900
     12 C12        -12.4520     5.6710   -17.4820 c6         1 UM4      -0.063400
     13 C13        -11.1890     5.8880   -18.3460 c6         1 UM4      -0.086400
     14 C14        -11.0440     7.3790   -18.7230 c5         1 UM4       0.104700
     15 N15        -12.2880     7.9710   -19.2480 n          1 UM4      -0.416800
     16 C16        -13.6230     7.6010   -18.7140 c6         1 UM4       0.106000
     17 C17        -17.0330     5.7760   -14.5470 ca         1 UM4      -0.024800
     18 C18        -16.7400     4.7400   -13.6450 ca         1 UM4      -0.092000
     19 C19        -17.3030     4.7350   -12.3570 ca         1 UM4      -0.097000
     20 C20        -18.1750     5.7680   -11.9400 ca         1 UM4      -0.117600
     21 C21        -18.4600     6.8130   -12.8550 ca         1 UM4      -0.175000
     22 C22        -17.8860     6.8230   -14.1380 ca         1 UM4       0.166100
     23 O23        -18.1870     7.8600   -14.9930 os         1 UM4      -0.290100
     24 C24        -17.1600     8.8270   -14.9060 cx         1 UM4       0.091300
     25 C25        -17.3550     9.9640   -13.9320 cx         1 UM4      -0.135900
     26 C26        -17.4900    10.2070   -15.4170 cx         1 UM4      -0.135900
     27 C27        -18.7680     5.7270   -10.5410 c          1 UM4       0.626700
     28 O28        -18.5140     4.8170    -9.7630 o          1 UM4      -0.565100
     29 N29        -19.5950     6.7770   -10.2090 ns         1 UM4      -0.319900
     30 C30        -20.3100     7.0530    -9.0380 ca         1 UM4       0.480900
     31 N31        -20.7710     8.3180    -9.0520 nb         1 UM4      -0.720000
     32 C32        -21.4920     8.7330    -7.9850 ca         1 UM4       0.372900
     33 C33        -21.7730     7.9080    -6.8820 ca         1 UM4      -0.153000
     34 C34        -21.2930     6.5810    -6.8590 ca         1 UM4      -0.134300
     35 C35        -20.5480     6.1510    -7.9790 ca         1 UM4      -0.133000
     36 C36        -21.5870     5.6350    -5.6890 c3         1 UM4       0.357300
     37 F37        -20.5550     4.7960    -5.4430 f          1 UM4      -0.108000
     38 F38        -22.6710     4.8670    -5.9390 f          1 UM4      -0.108000
     39 F39        -21.8290     6.2990    -4.5360 f          1 UM4      -0.108000
     40 C40        -12.0870     9.0480   -20.1110 c          1 UM4       0.564000
     41 C41        -10.5660     9.1410   -20.2570 c5         1 UM4      -0.167400
     42 C42        -10.0720     7.7090   -19.8960 c5         1 UM4      -0.087400
     43 O43        -12.9660     9.5880   -20.7670 o          1 UM4      -0.555000
     44 H1         -18.3490     4.8470   -20.5180 h4         1 UM4       0.031100
     45 H2         -15.8780     5.4720   -20.1080 h4         1 UM4       0.159000
     46 H3         -13.7490     5.5050   -19.1840 hc         1 UM4       0.063700
     47 H4         -20.2390     4.4360   -16.6910 hn         1 UM4       0.499500
     48 H5         -19.1130     4.7590   -15.4300 hn         1 UM4       0.499500
     49 H6         -12.3630     6.2380   -16.5450 hc         1 UM4       0.062200
     50 H7         -12.5350     4.6100   -17.2050 hc         1 UM4       0.062200
     51 H8         -11.2570     5.2770   -19.2570 hc         1 UM4       0.050700
     52 H9         -10.2940     5.5510   -17.8060 hc         1 UM4       0.050700
     53 H10        -10.7440     7.9250   -17.8170 h1         1 UM4       0.050700
     54 H11        -13.8330     8.2470   -17.8480 h1         1 UM4       0.062700
     55 H12        -14.3980     7.8060   -19.4670 h1         1 UM4       0.062700
     56 H13        -16.0750     3.9340   -13.9460 ha         1 UM4       0.127000
     57 H14        -17.0580     3.9180   -11.6810 ha         1 UM4       0.139000
     58 H15        -19.1240     7.6310   -12.5890 ha         1 UM4       0.128000
     59 H16        -16.1500     8.4510   -15.0800 h1         1 UM4       0.086700
     60 H17        -16.4730    10.3520   -13.4300 hc         1 UM4       0.084200
     61 H18        -18.2620     9.9720   -13.3330 hc         1 UM4       0.084200
     62 H19        -18.4860    10.3730   -15.8180 hc         1 UM4       0.084200
     63 H20        -16.6980    10.7600   -15.9160 hc         1 UM4       0.084200
     64 H21        -19.7000     7.4850   -10.9180 hn         1 UM4       0.174000
     65 H22        -21.8570     9.7590    -8.0170 h4         1 UM4       0.027100
     66 H23        -22.3640     8.3080    -6.0630 ha         1 UM4       0.145000
     67 H24        -20.1760     5.1340    -8.0240 ha         1 UM4       0.172000
     68 H25        -10.2770     9.5120   -21.2450 hc         1 UM4       0.076700
     69 H26        -10.2040     9.8370   -19.4930 hc         1 UM4       0.076700
     70 H27        -10.2050     7.0190   -20.7370 hc         1 UM4       0.056700
     71 H28         -9.0180     7.6780   -19.5980 hc         1 UM4       0.056700
@<TRIPOS>BOND
     1     1     2 1   
     2     1     4 2   
     3     2     3 2   
     4     2    44 1   
     5     3     6 1   
     6     3    45 1   
     7     4     5 1   
     8     4    11 1   
     9     5     6 1   
    10     5     9 2   
    11     6     7 1   
    12     7     8 2   
    13     7    10 1   
    14     8     9 1   
    15     9    17 1   
    16    10    12 1   
    17    10    16 1   
    18    10    46 1   
    19    11    47 1   
    20    11    48 1   
    21    12    13 1   
    22    12    49 1   
    23    12    50 1   
    24    13    14 1   
    25    13    51 1   
    26    13    52 1   
    27    14    15 1   
    28    14    42 1   
    29    14    53 1   
    30    15    16 1   
    31    15    40 1   
    32    16    54 1   
    33    16    55 1   
    34    17    18 ar  
    35    17    22 ar  
    36    18    19 ar  
    37    18    56 1   
    38    19    20 ar  
    39    19    57 1   
    40    20    21 ar  
    41    20    27 1   
    42    21    22 ar  
    43    21    58 1   
    44    22    23 1   
    45    23    24 1   
    46    24    25 1   
    47    24    26 1   
    48    24    59 1   
    49    25    26 1   
    50    25    60 1   
    51    25    61 1   
    52    26    62 1   
    53    26    63 1   
    54    27    28 2   
    55    27    29 1   
    56    29    30 1   
    57    29    64 1   
    58    30    31 ar  
    59    30    35 ar  
    60    31    32 ar  
    61    32    33 ar  
    62    32    65 1   
    63    33    34 ar  
    64    33    66 1   
    65    34    35 ar  
    66    34    36 1   
    67    35    67 1   
    68    36    37 1   
    69    36    38 1   
    70    36    39 1   
    71    40    41 1   
    72    40    43 2   
    73    41    42 1   
    74    41    68 1   
    75    41    69 1   
    76    42    70 1   
    77    42    71 1   
@<TRIPOS>SUBSTRUCTURE
     1 UM4         1 TEMP              0 ****  ****    0 ROOT
