@<TRIPOS>MOLECULE
UM4
   71    77     1     0     0
SMALL
bcc


@<TRIPOS>ATOM
      1 N01        -18.6950     4.8600   -18.9380 nc         1 UM4      -0.784000
      2 C02        -17.6460     4.9340   -19.8030 cc         1 UM4       0.431200
      3 C03        -16.3850     5.2640   -19.4600 cd         1 UM4      -0.267600
      4 C04        -18.4790     5.1110   -17.6720 cd         1 UM4       0.748200
      5 C05        -17.1640     5.4350   -17.1880 cd         1 UM4      -0.244600
      6 N06        -16.1510     5.5300   -18.1230 na         1 UM4      -0.003200
      7 C07        -15.0230     5.8930   -17.4690 cd         1 UM4       0.345800
      8 N08        -15.2630     6.0330   -16.1830 nc         1 UM4      -0.533300
      9 C09        -16.5700     5.7510   -15.9800 cc         1 UM4       0.104400
     10 C10        -13.7200     6.1220   -18.1540 c6         1 UM4      -0.077000
     11 N11        -19.5170     5.1050   -16.8190 nv         1 UM4      -0.962500
     12 C12        -12.5380     6.0110   -17.1920 c6         1 UM4      -0.063400
     13 C13        -11.2290     6.2260   -17.9440 c6         1 UM4      -0.086400
     14 C14        -11.2140     7.5710   -18.6520 c5         1 UM4       0.104700
     15 N15        -12.4280     7.7460   -19.4350 n          1 UM4      -0.483800
     16 C16        -13.7100     7.5040   -18.8270 c6         1 UM4       0.106000
     17 C17        -17.1700     5.7450   -14.6400 ca         1 UM4      -0.024800
     18 C18        -17.6720     4.5650   -14.0990 ca         1 UM4      -0.110000
     19 C19        -18.2400     4.5300   -12.8360 ca         1 UM4      -0.115000
     20 C20        -18.3200     5.7010   -12.0950 ca         1 UM4      -0.117600
     21 C21        -17.8120     6.8930   -12.6100 ca         1 UM4      -0.193000
     22 C22        -17.2360     6.9190   -13.8750 ca         1 UM4       0.166100
     23 O23        -16.7270     8.0270   -14.4410 os         1 UM4      -0.266900
     24 C24        -16.8420     9.2390   -13.7520 cx         1 UM4       0.068100
     25 C25        -18.1580     9.9430   -13.7440 cx         1 UM4      -0.135900
     26 C26        -17.0230    10.4490   -14.5920 cx         1 UM4      -0.135900
     27 C27        -18.9300     5.6320   -10.7340 c          1 UM4       0.693700
     28 O28        -18.8420     4.6310   -10.0500 o          1 UM4      -0.565100
     29 N29        -19.5940     6.7560   -10.3500 ns         1 UM4      -0.553400
     30 C30        -20.2410     7.0290    -9.1520 ca         1 UM4       0.546200
     31 N31        -20.8640     8.2020    -9.1590 nb         1 UM4      -0.720000
     32 C32        -21.5150     8.5860    -8.0750 ca         1 UM4       0.438200
     33 C33        -21.5890     7.8280    -6.9170 ca         1 UM4      -0.236300
     34 C34        -20.9350     6.6070    -6.9200 ca         1 UM4      -0.134300
     35 C35        -20.2450     6.1820    -8.0440 ca         1 UM4      -0.216300
     36 C36        -20.9690     5.7000    -5.7230 c3         1 UM4       0.721200
     37 F37        -19.7370     5.3330    -5.3530 f          1 UM4      -0.229300
     38 F38        -21.6460     4.5770    -5.9900 f          1 UM4      -0.229300
     39 F39        -21.5480     6.2710    -4.6670 f          1 UM4      -0.229300
     40 C40        -12.2420     8.3550   -20.6220 c          1 UM4       0.706500
     41 C41        -10.7580     8.6060   -20.7800 c5         1 UM4      -0.167400
     42 C42        -10.1140     7.7400   -19.7020 c5         1 UM4      -0.087400
     43 O43        -13.1220     8.6710   -21.4070 o          1 UM4      -0.630500
     44 H1         -17.8660     4.7150   -20.8400 h4         1 UM4       0.031100
     45 H2         -15.5610     5.3290   -20.1510 h4         1 UM4       0.177000
     46 H3         -13.5940     5.3650   -18.9370 hc         1 UM4       0.063700
     47 H4         -20.4040     4.7670   -17.1520 hn         1 UM4       0.444300
     48 H5         -19.3880     5.1420   -15.8240 hn         1 UM4       0.444300
     49 H6         -12.6420     6.7560   -16.3980 hc         1 UM4       0.062200
     50 H7         -12.5390     5.0320   -16.7100 hc         1 UM4       0.062200
     51 H8         -11.0950     5.4300   -18.6840 hc         1 UM4       0.050700
     52 H9         -10.3820     6.1730   -17.2560 hc         1 UM4       0.050700
     53 H10        -11.1580     8.3680   -17.8980 h1         1 UM4       0.050700
     54 H11        -13.9140     8.2690   -18.0680 h1         1 UM4       0.062700
     55 H12        -14.4800     7.5880   -19.5940 h1         1 UM4       0.062700
     56 H13        -17.6010     3.6520   -14.6770 ha         1 UM4       0.145000
     57 H14        -18.6180     3.5980   -12.4390 ha         1 UM4       0.157000
     58 H15        -17.8390     7.7970   -12.0170 ha         1 UM4       0.146000
     59 H16        -16.2100     9.3090   -12.8710 h1         1 UM4       0.086700
     60 H17        -18.4330    10.4920   -12.8520 hc         1 UM4       0.084200
     61 H18        -18.9870     9.4670   -14.2520 hc         1 UM4       0.084200
     62 H19        -17.1000    10.3090   -15.6630 hc         1 UM4       0.084200
     63 H20        -16.5090    11.3520   -14.2910 hc         1 UM4       0.084200
     64 H21        -19.7180     7.4900   -11.0340 hn         1 UM4       0.340500
     65 H22        -22.0070     9.5500    -8.1250 h4         1 UM4       0.027100
     66 H23        -22.1400     8.1970    -6.0660 ha         1 UM4       0.163000
     67 H24        -19.7300     5.2350    -8.0650 ha         1 UM4       0.190000
     68 H25        -10.4220     8.3800   -21.7920 hc         1 UM4       0.076700
     69 H26        -10.5790     9.6720   -20.6090 hc         1 UM4       0.076700
     70 H27         -9.8520     6.7630   -20.1140 hc         1 UM4       0.056700
     71 H28         -9.2100     8.1760   -19.2800 hc         1 UM4       0.056700
@<TRIPOS>BOND
     1     1     2 1   
     2     1     4 2   
     3     2     3 2   
     4     2    44 1   
     5     3     6 1   
     6     3    45 1   
     7     4     5 1   
     8     4    11 1   
     9     5     6 1   
    10     5     9 2   
    11     6     7 1   
    12     7     8 2   
    13     7    10 1   
    14     8     9 1   
    15     9    17 1   
    16    10    12 1   
    17    10    16 1   
    18    10    46 1   
    19    11    47 1   
    20    11    48 1   
    21    12    13 1   
    22    12    49 1   
    23    12    50 1   
    24    13    14 1   
    25    13    51 1   
    26    13    52 1   
    27    14    15 1   
    28    14    42 1   
    29    14    53 1   
    30    15    16 1   
    31    15    40 1   
    32    16    54 1   
    33    16    55 1   
    34    17    18 ar  
    35    17    22 ar  
    36    18    19 ar  
    37    18    56 1   
    38    19    20 ar  
    39    19    57 1   
    40    20    21 ar  
    41    20    27 1   
    42    21    22 ar  
    43    21    58 1   
    44    22    23 1   
    45    23    24 1   
    46    24    25 1   
    47    24    26 1   
    48    24    59 1   
    49    25    26 1   
    50    25    60 1   
    51    25    61 1   
    52    26    62 1   
    53    26    63 1   
    54    27    28 2   
    55    27    29 1   
    56    29    30 1   
    57    29    64 1   
    58    30    31 ar  
    59    30    35 ar  
    60    31    32 ar  
    61    32    33 ar  
    62    32    65 1   
    63    33    34 ar  
    64    33    66 1   
    65    34    35 ar  
    66    34    36 1   
    67    35    67 1   
    68    36    37 1   
    69    36    38 1   
    70    36    39 1   
    71    40    41 1   
    72    40    43 2   
    73    41    42 1   
    74    41    68 1   
    75    41    69 1   
    76    42    70 1   
    77    42    71 1   
@<TRIPOS>SUBSTRUCTURE
     1 UM4         1 TEMP              0 ****  ****    0 ROOT
