@<TRIPOS>MOLECULE
UM5
   44    46     1     0     0
SMALL
No Charge or Current Charge


@<TRIPOS>ATOM
      1 C10         46.1330    17.2540    10.4740 c          1 UM5       0.616700
      2 C13         43.9680    18.4950    10.8310 ca         1 UM5      -0.017000
      3 C15         42.6440    18.8070    10.4890 ca         1 UM5      -0.203000
      4 C17         42.0120    18.1710     9.4010 ca         1 UM5       0.162100
      5 C22         39.4810    18.7550    11.1360 ca         1 UM5       0.300300
      6 C01         48.6510    14.8710     8.9160 c3         1 UM5      -0.111100
      7 N08         46.8090    16.3290     9.7090 ns         1 UM5      -0.503900
      8 O11         46.6760    17.8020    11.4240 o          1 UM5      -0.609100
      9 C12         44.7010    17.5520    10.0840 ca         1 UM5      -0.188600
     10 C19         39.8600    19.3770     9.7860 c3         1 UM5       0.109300
     11 C23         39.1050    17.3990    11.2310 ca         1 UM5      -0.139000
     12 C25         38.7610    16.8640    12.4830 ca         1 UM5      -0.073000
     13 C27         38.8030    17.7150    13.5990 ca         1 UM5      -0.156000
     14 C29         39.1800    19.0570    13.4230 ca         1 UM5       0.340900
     15 N31         39.5120    19.5750    12.2170 nb         1 UM5      -0.670000
     16 C32         42.7230    17.2030     8.6520 ca         1 UM5      -0.148500
     17 C33         44.0670    16.9220     8.9870 ca         1 UM5      -0.032000
     18 C35         42.1430    16.5440     7.4740 cc         1 UM5       0.268500
     19 C36         40.8500    16.1280     7.4180 cd         1 UM5      -0.184000
     20 N38         40.7840    15.5190     6.1850 na         1 UM5       0.119800
     21 C39         39.6190    14.8820     5.5610 c3         1 UM5       0.062900
     22 N43         42.0090    15.5540     5.5600 nd         1 UM5      -0.201800
     23 N44         42.8410    16.1710     6.3630 nc         1 UM5      -0.370000
     24 H1          44.4270    19.0040    11.6770 ha         1 UM5       0.137000
     25 H2          42.1320    19.5600    11.0790 ha         1 UM5       0.133000
     26 H3          49.6900    14.5800     9.1090 hc         1 UM5       0.041700
     27 H4          48.0260    13.9720     8.9750 hc         1 UM5       0.041700
     28 H5          48.5900    15.2730     7.8970 hc         1 UM5       0.041700
     29 H6          48.2780    15.5040    10.9540 h1         1 UM5       0.050200
     30 H7          48.8420    16.8040     9.8760 h1         1 UM5       0.050200
     31 H8          46.3070    15.9120     8.9380 hn         1 UM5       0.317500
     32 H9          40.3380    20.3520     9.9390 h1         1 UM5       0.076700
     33 H10         38.9330    19.5590     9.2290 h1         1 UM5       0.076700
     34 H11         39.0820    16.7730    10.3440 ha         1 UM5       0.133000
     35 H12         38.4700    15.8200    12.5850 ha         1 UM5       0.122000
     36 H13         38.5450    17.3480    14.5890 ha         1 UM5       0.127000
     37 H14         39.2180    19.7390    14.2720 h4         1 UM5       0.022100
     38 H15         44.6040    16.1930     8.3860 ha         1 UM5       0.138000
     39 H16         40.0260    16.2010     8.1130 h4         1 UM5       0.175000
     40 H17         39.7980    13.8040     5.4670 h1         1 UM5       0.063700
     41 H18         38.7290    15.0490     6.1800 h1         1 UM5       0.063700
     42 H19         39.4540    15.3130     4.5670 h1         1 UM5       0.063700
     43 O18         40.7200    18.4970     9.0230 os         1 UM5      -0.350100
     44 C05         48.1940    15.9200     9.9420 c3         1 UM5       0.104000
@<TRIPOS>BOND
     1     1     7 1   
     2     1     8 2   
     3     1     9 1   
     4     2     3 ar  
     5     2     9 ar  
     6     2    24 1   
     7     3     4 ar  
     8     3    25 1   
     9     4    16 ar  
    10     4    43 1   
    11     5    10 1   
    12     5    11 ar  
    13     5    15 ar  
    14     6    26 1   
    15     6    27 1   
    16     6    28 1   
    17     6    44 1   
    18     7    31 1   
    19     7    44 1   
    20     9    17 ar  
    21    10    32 1   
    22    10    33 1   
    23    10    43 1   
    24    11    12 ar  
    25    11    34 1   
    26    12    13 ar  
    27    12    35 1   
    28    13    14 ar  
    29    13    36 1   
    30    14    15 ar  
    31    14    37 1   
    32    16    17 ar  
    33    16    18 1   
    34    17    38 1   
    35    18    19 2   
    36    18    23 1   
    37    19    20 1   
    38    19    39 1   
    39    20    21 1   
    40    20    22 1   
    41    21    40 1   
    42    21    41 1   
    43    21    42 1   
    44    22    23 2   
    45    29    44 1   
    46    30    44 1   
@<TRIPOS>SUBSTRUCTURE
     1 UM5         1 TEMP              0 ****  ****    0 ROOT
