@<TRIPOS>MOLECULE
UM5
   44    46     1     0     0
SMALL
bcc


@<TRIPOS>ATOM
      1 C10         46.1170    17.5360    10.1470 c          1 UM5       0.683700
      2 C13         43.9640    18.6800    10.5950 ca         1 UM5      -0.035000
      3 C15         42.6190    18.9040    10.3620 ca         1 UM5      -0.221000
      4 C17         41.9560    18.2070     9.3560 ca         1 UM5       0.162100
      5 C22         39.6200    18.5610    11.2570 ca         1 UM5       0.365600
      6 C01         48.3430    14.6650     9.3850 c3         1 UM5      -0.111100
      7 N08         46.6270    16.3370     9.8220 ns         1 UM5      -0.570900
      8 O11         46.7880    18.4210    10.6640 o          1 UM5      -0.609100
      9 C12         44.6680    17.7420     9.8480 ca         1 UM5      -0.188600
     10 C19         39.8450    19.1780     9.8990 c3         1 UM5       0.086100
     11 C23         39.5480    17.1830    11.4260 ca         1 UM5      -0.222300
     12 C25         39.3170    16.6850    12.6980 ca         1 UM5      -0.091000
     13 C27         39.1530    17.5750    13.7490 ca         1 UM5      -0.239300
     14 C29         39.2310    18.9310    13.4740 ca         1 UM5       0.406200
     15 N31         39.4650    19.4160    12.2600 nb         1 UM5      -0.670000
     16 C32         42.6490    17.2710     8.5720 ca         1 UM5      -0.148500
     17 C33         43.9990    17.0590     8.8400 ca         1 UM5      -0.050000
     18 C35         42.0090    16.5210     7.4910 cc         1 UM5       0.333800
     19 C36         40.7070    16.4610     7.0420 cd         1 UM5      -0.216600
     20 N38         40.7460    15.5820     6.0290 na         1 UM5       0.098400
     21 C39         39.6480    15.1250     5.2050 c3         1 UM5       0.033600
     22 N43         41.9700    15.1230     5.8460 nd         1 UM5      -0.201800
     23 N44         42.7350    15.6780     6.7160 nc         1 UM5      -0.370000
     24 H1          44.4610    19.2370    11.3770 ha         1 UM5       0.155000
     25 H2          42.1040    19.6310    10.9750 ha         1 UM5       0.151000
     26 H3          49.3860    14.4070     9.5630 hc         1 UM5       0.041700
     27 H4          47.7300    13.8540     9.7800 hc         1 UM5       0.041700
     28 H5          48.1880    14.7170     8.3070 hc         1 UM5       0.041700
     29 H6          48.2160    15.9210    11.1290 h1         1 UM5       0.050200
     30 H7          48.6540    16.7750     9.6600 h1         1 UM5       0.050200
     31 H8          46.0010    15.5920     9.5620 hn         1 UM5       0.317500
     32 H9          40.2430    20.1900    10.0110 h1         1 UM5       0.076700
     33 H10         38.8940    19.2630     9.3700 h1         1 UM5       0.076700
     34 H11         39.6700    16.5110    10.5870 ha         1 UM5       0.151000
     35 H12         39.2620    15.6170    12.8650 ha         1 UM5       0.140000
     36 H13         38.9710    17.2310    14.7580 ha         1 UM5       0.145000
     37 H14         39.1070    19.6590    14.2680 h4         1 UM5       0.022100
     38 H15         44.5270    16.3480     8.2160 ha         1 UM5       0.156000
     39 H16         39.7940    16.9420     7.3400 h4         1 UM5       0.193000
     40 H17         40.0530    14.5110     4.4070 h1         1 UM5       0.063700
     41 H18         38.9520    14.5360     5.7970 h1         1 UM5       0.063700
     42 H19         39.1270    15.9760     4.7760 h1         1 UM5       0.063700
     43 O18         40.6560    18.3790     9.0610 os         1 UM5      -0.326900
     44 C05         48.0140    15.9850    10.0550 c3         1 UM5       0.104000
@<TRIPOS>BOND
     1     1     7 1   
     2     1     8 2   
     3     1     9 1   
     4     2     3 ar  
     5     2     9 ar  
     6     2    24 1   
     7     3     4 ar  
     8     3    25 1   
     9     4    16 ar  
    10     4    43 1   
    11     5    10 1   
    12     5    11 ar  
    13     5    15 ar  
    14     6    26 1   
    15     6    27 1   
    16     6    28 1   
    17     6    44 1   
    18     7    31 1   
    19     7    44 1   
    20     9    17 ar  
    21    10    32 1   
    22    10    33 1   
    23    10    43 1   
    24    11    12 ar  
    25    11    34 1   
    26    12    13 ar  
    27    12    35 1   
    28    13    14 ar  
    29    13    36 1   
    30    14    15 ar  
    31    14    37 1   
    32    16    17 ar  
    33    16    18 1   
    34    17    38 1   
    35    18    19 2   
    36    18    23 1   
    37    19    20 1   
    38    19    39 1   
    39    20    21 1   
    40    20    22 1   
    41    21    40 1   
    42    21    41 1   
    43    21    42 1   
    44    22    23 2   
    45    29    44 1   
    46    30    44 1   
@<TRIPOS>SUBSTRUCTURE
     1 UM5         1 TEMP              0 ****  ****    0 ROOT
