@<TRIPOS>MOLECULE
UM6
   39    42     1     0     0
SMALL
No Charge or Current Charge


@<TRIPOS>ATOM
      1 C2           9.4860    -3.0010   -12.5400 ca         1 UM6       0.184000
      2 C3           9.8590    -1.6630   -12.3680 ca         1 UM6      -0.168000
      3 C4           9.3630    -0.6590   -13.2320 ca         1 UM6       0.144600
      4 C6           9.2010     1.6890   -14.0160 c          1 UM6       0.722400
      5 C11          8.1640    -2.3850   -14.4740 ca         1 UM6      -0.035000
      6 C12          8.6210    -3.3610   -13.5790 ca         1 UM6      -0.157000
      7 N13          7.5360    -0.3060   -16.4700 nh         1 UM6      -0.742600
      8 C15          6.5350     0.1040   -18.6000 c5         1 UM6       0.170300
      9 C17          7.9790    -0.4290   -18.7770 c5         1 UM6      -0.124400
     10 C18          8.1930    -1.2030   -17.4520 c5         1 UM6       0.228800
     11 C19         10.3290     1.1780   -11.8630 ca         1 UM6       0.036600
     12 C21         12.0620     2.4960   -10.7450 ca         1 UM6      -0.105500
     13 C23         10.4550     1.2480    -9.4180 ca         1 UM6      -0.105500
     14 C24          9.8330     0.7970   -10.5960 ca         1 UM6      -0.092500
     15 Cl1         10.0980    -4.2300   -11.4420 cl         1 UM6      -0.195000
     16 N5           9.6790     0.7410   -13.0790 n          1 UM6      -0.247200
     17 O7           9.4020     2.8850   -13.8850 o          1 UM6      -0.526000
     18 N8           8.4730     1.2700   -15.0950 nc         1 UM6      -0.771100
     19 C9           8.1650     0.0130   -15.2690 cd         1 UM6       0.791800
     20 C10          8.5690    -1.0370   -14.3280 ca         1 UM6      -0.270900
     21 C14          6.5840     0.6360   -17.1380 c5         1 UM6       0.198800
     22 F16          5.6030    -0.9330   -18.7380 f          1 UM6      -0.268000
     23 C20         11.4390     2.0470   -11.9230 ca         1 UM6      -0.092500
     24 C22         11.5720     2.0940    -9.4920 ca         1 UM6      -0.102000
     25 H1          10.5480    -1.4290   -11.5640 ha         1 UM6       0.150000
     26 H2           7.4930    -2.6880   -15.2750 ha         1 UM6       0.121000
     27 H3           8.3190    -4.3980   -13.6990 ha         1 UM6       0.136000
     28 H4           6.2790     0.8910   -19.3220 h1         1 UM6       0.079700
     29 H5           8.0920    -1.0690   -19.6590 hc         1 UM6       0.072700
     30 H6           8.6960     0.3950   -18.8720 hc         1 UM6       0.072700
     31 H7           7.7010    -2.1850   -17.4860 h1         1 UM6       0.060700
     32 H8           9.2600    -1.3620   -17.2390 h1         1 UM6       0.060700
     33 H9          12.9240     3.1570   -10.8050 ha         1 UM6       0.118000
     34 H10         10.0650     0.9450    -8.4480 ha         1 UM6       0.118000
     35 H11          8.9510     0.1640   -10.5210 ha         1 UM6       0.125500
     36 H12          6.9490     1.6720   -17.1260 h1         1 UM6       0.084700
     37 H13          5.5900     0.6240   -16.6710 h1         1 UM6       0.084700
     38 H14         11.8340     2.3620   -12.8860 ha         1 UM6       0.125500
     39 H15         12.0530     2.4430    -8.5810 ha         1 UM6       0.116000
@<TRIPOS>BOND
     1     1     2 ar  
     2     1     6 ar  
     3     1    15 1   
     4     2     3 ar  
     5     2    25 1   
     6     3    16 1   
     7     3    20 ar  
     8     4    16 1   
     9     4    17 2   
    10     4    18 1   
    11     5     6 ar  
    12     5    20 ar  
    13     5    26 1   
    14     6    27 1   
    15     7    10 1   
    16     7    19 1   
    17     7    21 1   
    18     8     9 1   
    19     8    21 1   
    20     8    22 1   
    21     8    28 1   
    22     9    10 1   
    23     9    29 1   
    24     9    30 1   
    25    10    31 1   
    26    10    32 1   
    27    11    14 ar  
    28    11    16 1   
    29    11    23 ar  
    30    12    23 ar  
    31    12    24 ar  
    32    12    33 1   
    33    13    14 ar  
    34    13    24 ar  
    35    13    34 1   
    36    14    35 1   
    37    18    19 2   
    38    19    20 1   
    39    21    36 1   
    40    21    37 1   
    41    23    38 1   
    42    24    39 1   
@<TRIPOS>SUBSTRUCTURE
     1 UM6         1 TEMP              0 ****  ****    0 ROOT
