@<TRIPOS>MOLECULE
UM6
   39    42     1     0     0
SMALL
abcg2


@<TRIPOS>ATOM
      1 C2           9.9790    -2.8780   -12.7580 ca         1 UM6       0.184000
      2 C3          10.0640    -1.5360   -12.4550 ca         1 UM6      -0.168000
      3 C4           9.4030    -0.6070   -13.2710 ca         1 UM6       0.144600
      4 C6           8.6010     1.6530   -13.6450 c          1 UM6       0.722400
      5 C11          8.6210    -2.4210   -14.6610 ca         1 UM6      -0.035000
      6 C12          9.2380    -3.3440   -13.8400 ca         1 UM6      -0.157000
      7 N13          7.6430    -0.2100   -16.4870 nh         1 UM6      -0.742600
      8 C15          6.6630     0.2930   -18.5710 c5         1 UM6       0.170300
      9 C17          7.7090    -0.7820   -18.7740 c5         1 UM6      -0.124400
     10 C18          7.8950    -1.3620   -17.3720 c5         1 UM6       0.228800
     11 C19         10.0920     1.1960   -11.7710 ca         1 UM6       0.036600
     12 C21         12.1030     2.0460   -10.7730 ca         1 UM6      -0.105500
     13 C23         10.1620     1.6140    -9.4090 ca         1 UM6      -0.105500
     14 C24          9.4640     1.1890   -10.5330 ca         1 UM6      -0.092500
     15 CL1         10.8030    -4.0260   -11.7340 cl         1 UM6      -0.195000
     16 N5           9.3860     0.7340   -12.9350 n          1 UM6      -0.247200
     17 O7           8.4920     2.8050   -13.2200 o          1 UM6      -0.526000
     18 N8           8.0200     1.2500   -14.8020 nc         1 UM6      -0.771100
     19 C9           8.1230     0.0090   -15.2520 cd         1 UM6       0.791800
     20 C10          8.7200    -1.0410   -14.4290 ca         1 UM6      -0.270900
     21 C14          7.0100     0.8960   -17.2280 c5         1 UM6       0.198800
     22 F16          5.3840    -0.3180   -18.4850 f          1 UM6      -0.268000
     23 C20         11.4070     1.6210   -11.9000 ca         1 UM6      -0.092500
     24 C22         11.4820     2.0420    -9.5270 ca         1 UM6      -0.102000
     25 H1          10.6160    -1.2080   -11.5890 ha         1 UM6       0.150000
     26 H2           8.0340    -2.7950   -15.4800 ha         1 UM6       0.121000
     27 H3           9.1480    -4.4030   -14.0340 ha         1 UM6       0.136000
     28 H4           6.6000     1.0290   -19.3690 h1         1 UM6       0.079700
     29 H5           7.4060    -1.5290   -19.5050 hc         1 UM6       0.072700
     30 H6           8.6310    -0.3090   -19.1170 hc         1 UM6       0.072700
     31 H7           7.1680    -2.1550   -17.1900 h1         1 UM6       0.060700
     32 H8           8.8970    -1.7560   -17.2150 h1         1 UM6       0.060700
     33 H9          13.1280     2.3790   -10.8680 ha         1 UM6       0.118000
     34 H10          9.6770     1.6100    -8.4410 ha         1 UM6       0.118000
     35 H11          8.4390     0.8490   -10.4550 ha         1 UM6       0.125500
     36 H12          7.7110     1.7240   -17.3500 h1         1 UM6       0.084700
     37 H13          6.1310     1.2690   -16.7040 h1         1 UM6       0.084700
     38 H14         11.8780     1.6130   -12.8740 ha         1 UM6       0.125500
     39 H15         12.0240     2.3720    -8.6510 ha         1 UM6       0.116000
@<TRIPOS>BOND
     1     1     2 ar  
     2     1     6 ar  
     3     1    15 1   
     4     2     3 ar  
     5     2    25 1   
     6     3    16 1   
     7     3    20 ar  
     8     4    16 1   
     9     4    17 2   
    10     4    18 1   
    11     5     6 ar  
    12     5    20 ar  
    13     5    26 1   
    14     6    27 1   
    15     7    10 1   
    16     7    19 1   
    17     7    21 1   
    18     8     9 1   
    19     8    21 1   
    20     8    22 1   
    21     8    28 1   
    22     9    10 1   
    23     9    29 1   
    24     9    30 1   
    25    10    31 1   
    26    10    32 1   
    27    11    14 ar  
    28    11    16 1   
    29    11    23 ar  
    30    12    23 ar  
    31    12    24 ar  
    32    12    33 1   
    33    13    14 ar  
    34    13    24 ar  
    35    13    34 1   
    36    14    35 1   
    37    18    19 2   
    38    19    20 1   
    39    21    36 1   
    40    21    37 1   
    41    23    38 1   
    42    24    39 1   
@<TRIPOS>SUBSTRUCTURE
     1 UM6         1 TEMP              0 ****  ****    0 ROOT
