@<TRIPOS>MOLECULE
UM7
   22    22     1     0     0
SMALL
No Charge or Current Charge


@<TRIPOS>ATOM
      1 C21         20.5790    12.8650    50.3860 c6         1 UM7       0.113800
      2 N22         22.3390    11.2360    50.0570 n7         1 UM7      -0.590200
      3 C23         22.9810    12.0120    48.9370 c6         1 UM7       0.100500
      4 C27         26.7770    12.4200    48.7050 c3         1 UM7       0.152900
      5 C19         22.7280    13.5350    49.1700 c6         1 UM7      -0.104400
      6 C20         21.2150    13.8270    49.3500 c6         1 UM7      -0.075400
      7 C24         24.4900    11.6330    48.7340 c          1 UM7       0.593100
      8 N18         20.8870    11.4540    50.0360 n7         1 UM7      -0.638200
      9 O26         25.3710    12.6840    48.8670 os         1 UM7      -0.443100
     10 H1          19.4890    13.0120    50.3980 h1         1 UM7       0.038700
     11 H2          20.9580    13.0920    51.3940 h1         1 UM7       0.038700
     12 H8          22.7750    11.4960    50.9590 hn         1 UM7       0.391000
     13 H9          22.5030    11.7280    47.9870 h1         1 UM7       0.107700
     14 H10         27.3560    13.3430    48.8370 h1         1 UM7       0.048700
     15 H11         27.1270    11.6910    49.4480 h1         1 UM7       0.048700
     16 H12         26.9890    12.0260    47.7030 h1         1 UM7       0.048700
     17 H26         23.2710    13.8710    50.0650 hc         1 UM7       0.053700
     18 H27         23.1190    14.1200    48.3260 hc         1 UM7       0.053700
     19 H28         20.7020    13.7090    48.3850 hc         1 UM7       0.052700
     20 H29         21.0620    14.8690    49.6600 hc         1 UM7       0.052700
     21 H3          20.3560    10.7840    50.6240 hn         1 UM7       0.434000
     22 O25         24.8520    10.4850    48.4960 o          1 UM7      -0.477000
@<TRIPOS>BOND
     1     1     6 1   
     2     1     8 1   
     3     1    10 1   
     4     1    11 1   
     5     2     3 1   
     6     2     8 1   
     7     2    12 1   
     8     3     5 1   
     9     3     7 1   
    10     3    13 1   
    11     4     9 1   
    12     4    14 1   
    13     4    15 1   
    14     4    16 1   
    15     5     6 1   
    16     5    17 1   
    17     5    18 1   
    18     6    19 1   
    19     6    20 1   
    20     7     9 1   
    21     7    22 2   
    22     8    21 1   
@<TRIPOS>SUBSTRUCTURE
     1 UM7         1 TEMP              0 ****  ****    0 ROOT
