@<TRIPOS>MOLECULE
UM7
   22    22     1     0     0
SMALL
abcg2


@<TRIPOS>ATOM
      1 C21         20.5550    12.7540    50.2540 c6         1 UM7       0.113800
      2 N22         22.2610    11.1720    49.7390 n7         1 UM7      -0.590200
      3 C23         23.0540    12.1570    49.0290 c6         1 UM7       0.100500
      4 C27         26.6630    12.2970    48.3060 c3         1 UM7       0.152900
      5 C19         22.8140    13.5850    49.5480 c6         1 UM7      -0.104400
      6 C20         21.3170    13.8840    49.5770 c6         1 UM7      -0.075400
      7 C24         24.5160    11.7880    49.1280 c          1 UM7       0.593100
      8 N18         20.8970    11.5060    49.5920 n7         1 UM7      -0.638200
      9 O26         25.2510    12.5070    48.2930 os         1 UM7      -0.443100
     10 H1          19.4780    12.9080    50.1640 h1         1 UM7       0.038700
     11 H2          20.7930    12.7350    51.3300 h1         1 UM7       0.038700
     12 H8          22.5230    11.1980    50.7260 hn         1 UM7       0.391000
     13 H9          22.7600    12.1140    47.9740 h1         1 UM7       0.107700
     14 H10         27.0700    12.9660    47.5540 h1         1 UM7       0.048700
     15 H11         27.0930    12.5400    49.2770 h1         1 UM7       0.048700
     16 H12         26.9160    11.2690    48.0480 h1         1 UM7       0.048700
     17 H26         23.2210    13.6680    50.5620 hc         1 UM7       0.053700
     18 H27         23.3390    14.3170    48.9320 hc         1 UM7       0.053700
     19 H28         20.9460    14.0010    48.5550 hc         1 UM7       0.052700
     20 H29         21.1340    14.8270    50.0950 hc         1 UM7       0.052700
     21 H3          20.3550    10.7370    49.9590 hn         1 UM7       0.434000
     22 O25         24.9700    10.9640    49.8820 o          1 UM7      -0.477000
@<TRIPOS>BOND
     1     1     6 1   
     2     1     8 1   
     3     1    10 1   
     4     1    11 1   
     5     2     3 1   
     6     2     8 1   
     7     2    12 1   
     8     3     5 1   
     9     3     7 1   
    10     3    13 1   
    11     4     9 1   
    12     4    14 1   
    13     4    15 1   
    14     4    16 1   
    15     5     6 1   
    16     5    17 1   
    17     5    18 1   
    18     6    19 1   
    19     6    20 1   
    20     7     9 1   
    21     7    22 2   
    22     8    21 1   
@<TRIPOS>SUBSTRUCTURE
     1 UM7         1 TEMP              0 ****  ****    0 ROOT
