@<TRIPOS>MOLECULE
UM8
   44    47     1     0     0
SMALL
bcc


@<TRIPOS>ATOM
      1 N1          42.8410    15.3160     6.5330 nc         1 UM8      -0.354000
      2 N3          42.0240    17.6370     9.2010 nb         1 UM8      -0.676000
      3 C4          44.1430    16.6070     8.8150 ca         1 UM8      -0.201300
      4 C5          44.6800    17.2810     9.9020 ca         1 UM8      -0.113600
      5 C6          43.8640    18.1450    10.6190 ca         1 UM8      -0.192300
      6 C7          42.5340    18.2850    10.2400 ca         1 UM8       0.419600
      7 C8          41.5960    19.1620    11.0270 c3         1 UM8      -0.080400
      8 C10         41.3580    18.2830    13.3760 ca         1 UM8      -0.117000
      9 C13         39.0580    16.8890    12.7110 ca         1 UM8      -0.129500
     10 C15         46.1170    17.1480    10.3140 c          1 UM8       0.679700
     11 C17         48.8180    14.7770     9.5030 cx         1 UM8      -0.132400
     12 O           46.6970    18.0730    10.8570 o          1 UM8      -0.586100
     13 N4          46.6910    15.9620    10.0530 ns         1 UM8      -0.543900
     14 C16         48.0440    15.6800    10.4070 cx         1 UM8       0.043700
     15 C18         49.1480    16.2370     9.5650 cx         1 UM8      -0.132400
     16 C9          40.8670    18.3580    12.0760 ca         1 UM8      -0.082300
     17 C14         39.7120    17.6510    11.7520 ca         1 UM8      -0.117000
     18 C12         39.5530    16.8220    14.0080 ca         1 UM8      -0.126000
     19 C11         40.7060    17.5220    14.3380 ca         1 UM8      -0.129500
     20 C3          42.8050    16.8230     8.4980 ca         1 UM8       0.402300
     21 C2          42.1830    16.1600     7.3570 cc         1 UM8       0.202300
     22 C1          40.8820    16.2450     6.9190 cd         1 UM8      -0.192600
     23 N2          42.0320    14.8890     5.6310 nd         1 UM8      -0.200800
     24 N           40.8470    15.4390     5.8500 na         1 UM8       0.100400
     25 C           39.7210    15.1370     4.9950 c3         1 UM8       0.031600
     26 H1          44.7390    15.9490     8.1980 ha         1 UM8       0.162000
     27 H2          44.2490    18.6980    11.4650 ha         1 UM8       0.162000
     28 H3          42.1600    19.9650    11.5040 hc         1 UM8       0.064200
     29 H4          40.8820    19.6200    10.3420 hc         1 UM8       0.064200
     30 H6          38.1580    16.3480    12.4460 ha         1 UM8       0.129500
     31 H7          48.3190    14.4120     8.6140 hc         1 UM8       0.078450
     32 H8          49.4940    14.0680     9.9610 hc         1 UM8       0.078450
     33 H9          46.1160    15.1910     9.7520 hn         1 UM8       0.325500
     34 H10         48.2320    15.5940    11.4730 h1         1 UM8       0.086700
     35 H11         50.0560    16.5440    10.0670 hc         1 UM8       0.078450
     36 H12         48.8690    16.8500     8.7180 hc         1 UM8       0.078450
     37 H13         39.3180    17.7010    10.7440 ha         1 UM8       0.132000
     38 H14         39.0410    16.2310    14.7560 ha         1 UM8       0.130000
     39 H15         41.0970    17.4800    15.3460 ha         1 UM8       0.129500
     40 H16         40.0260    16.7930     7.2740 h4         1 UM8       0.198000
     41 H17         40.0510    14.4430     4.2290 h1         1 UM8       0.065367
     42 H18         38.9220    14.6810     5.5750 h1         1 UM8       0.065367
     43 H19         39.3530    16.0460     4.5240 h1         1 UM8       0.065367
     44 H5          42.2550    18.8290    13.6430 ha         1 UM8       0.132000
@<TRIPOS>BOND
     1     1    21 1   
     2     1    23 2   
     3     2     6 ar  
     4     2    20 ar  
     5     3     4 ar  
     6     3    20 ar  
     7     3    26 1   
     8     4     5 ar  
     9     4    10 1   
    10     5     6 ar  
    11     5    27 1   
    12     6     7 1   
    13     7    16 1   
    14     7    28 1   
    15     7    29 1   
    16     8    16 ar  
    17     8    19 ar  
    18     8    44 1   
    19     9    17 ar  
    20     9    18 ar  
    21     9    30 1   
    22    10    12 2   
    23    10    13 1   
    24    11    14 1   
    25    11    15 1   
    26    11    31 1   
    27    11    32 1   
    28    13    14 1   
    29    13    33 1   
    30    14    15 1   
    31    14    34 1   
    32    15    35 1   
    33    15    36 1   
    34    16    17 ar  
    35    17    37 1   
    36    18    19 ar  
    37    18    38 1   
    38    19    39 1   
    39    20    21 1   
    40    21    22 2   
    41    22    24 1   
    42    22    40 1   
    43    23    24 1   
    44    24    25 1   
    45    25    41 1   
    46    25    42 1   
    47    25    43 1   
@<TRIPOS>SUBSTRUCTURE
     1 UM8         1 TEMP              0 ****  ****    0 ROOT
