@<TRIPOS>MOLECULE
UM8
   44    47     1     0     0
SMALL
No Charge or Current Charge


@<TRIPOS>ATOM
      1 N1          42.9750    15.1750     6.2870 nc         1 UM8      -0.354000
      2 N3          41.8440    17.4720     8.9960 nb         1 UM8      -0.676000
      3 C4          43.9940    16.3730     8.8420 ca         1 UM8      -0.118000
      4 C5          44.4300    16.9630    10.0530 ca         1 UM8      -0.113600
      5 C6          43.5170    17.8150    10.7090 ca         1 UM8      -0.109000
      6 C7          42.2460    18.0410    10.1540 ca         1 UM8       0.354300
      7 C8          41.2460    18.9530    10.8520 c3         1 UM8      -0.080400
      8 C10         41.2670    18.9330    13.4000 ca         1 UM8      -0.099000
      9 C13         39.4880    16.7580    13.4600 ca         1 UM8      -0.111500
     10 C15         45.8020    16.7160    10.6500 c          1 UM8       0.612700
     11 C17         48.8580    14.8280     9.3660 cx         1 UM8      -0.132400
     12 O           46.1600    17.2480    11.6930 o          1 UM8      -0.586100
     13 N4          46.6350    15.8600     9.9590 ns         1 UM8      -0.476900
     14 C16         47.9690    15.5160    10.3720 cx         1 UM8       0.043700
     15 C18         49.1140    16.2670     9.7400 cx         1 UM8      -0.132400
     16 C9          40.7940    18.3840    12.1910 ca         1 UM8      -0.082300
     17 C14         39.9030    17.2940    12.2280 ca         1 UM8      -0.099000
     18 C12         39.9620    17.3100    14.6620 ca         1 UM8      -0.108000
     19 C11         40.8510    18.3970    14.6320 ca         1 UM8      -0.111500
     20 C3          42.7010    16.6460     8.3410 ca         1 UM8       0.337000
     21 C2          42.2490    16.0260     7.0740 cc         1 UM8       0.137000
     22 C1          41.0130    16.2570     6.5530 cd         1 UM8      -0.160000
     23 N2          42.2280    14.8490     5.2610 nd         1 UM8      -0.200800
     24 N           41.0230    15.4990     5.4030 na         1 UM8       0.121800
     25 C           39.9470    15.3510     4.4170 c3         1 UM8       0.060900
     26 H1          44.6390    15.7070     8.2780 ha         1 UM8       0.144000
     27 H2          43.7830    18.3000    11.6440 ha         1 UM8       0.144000
     28 H3          41.6990    19.9410    10.9900 hc         1 UM8       0.064200
     29 H4          40.3710    19.1210    10.2120 hc         1 UM8       0.064200
     30 H6          38.8000    15.9160    13.4820 ha         1 UM8       0.111500
     31 H7          48.4560    14.6250     8.3760 hc         1 UM8       0.078450
     32 H8          49.5510    14.0760     9.7370 hc         1 UM8       0.078450
     33 H9          46.2640    15.4540     9.1110 hn         1 UM8       0.325500
     34 H10         48.0580    15.2250    11.4210 h1         1 UM8       0.086700
     35 H11         49.9780    16.4850    10.3620 hc         1 UM8       0.078450
     36 H12         48.8780    17.0330     9.0050 hc         1 UM8       0.078450
     37 H13         39.5340    16.8600    11.3010 ha         1 UM8       0.114000
     38 H14         39.6410    16.8950    15.6150 ha         1 UM8       0.112000
     39 H15         41.2200    18.8240    15.5620 ha         1 UM8       0.111500
     40 H16         40.1800    16.8620     6.8890 h4         1 UM8       0.180000
     41 H17         40.2990    15.6960     3.4370 h1         1 UM8       0.065367
     42 H18         39.6540    14.2970     4.3500 h1         1 UM8       0.065367
     43 H19         39.0800    15.9490     4.7210 h1         1 UM8       0.065367
     44 H5          41.9570    19.7740    13.3880 ha         1 UM8       0.114000
@<TRIPOS>BOND
     1     1    21 1   
     2     1    23 2   
     3     2     6 ar  
     4     2    20 ar  
     5     3     4 ar  
     6     3    20 ar  
     7     3    26 1   
     8     4     5 ar  
     9     4    10 1   
    10     5     6 ar  
    11     5    27 1   
    12     6     7 1   
    13     7    16 1   
    14     7    28 1   
    15     7    29 1   
    16     8    16 ar  
    17     8    19 ar  
    18     8    44 1   
    19     9    17 ar  
    20     9    18 ar  
    21     9    30 1   
    22    10    12 2   
    23    10    13 1   
    24    11    14 1   
    25    11    15 1   
    26    11    31 1   
    27    11    32 1   
    28    13    14 1   
    29    13    33 1   
    30    14    15 1   
    31    14    34 1   
    32    15    35 1   
    33    15    36 1   
    34    16    17 ar  
    35    17    37 1   
    36    18    19 ar  
    37    18    38 1   
    38    19    39 1   
    39    20    21 1   
    40    21    22 2   
    41    22    24 1   
    42    22    40 1   
    43    23    24 1   
    44    24    25 1   
    45    25    41 1   
    46    25    42 1   
    47    25    43 1   
@<TRIPOS>SUBSTRUCTURE
     1 UM8         1 TEMP              0 ****  ****    0 ROOT
