@<TRIPOS>MOLECULE
UM9
   47    47     1     0     0
SMALL
No Charge or Current Charge


@<TRIPOS>ATOM
      1 C12        -34.3060   -61.2020   -10.5930 c3         1 UM9      -0.078100
      2 C9         -33.9500   -62.9310   -12.4030 c3         1 UM9       0.172600
      3 C2         -29.7810   -63.3920   -14.0180 c          1 UM9       0.604100
      4 C10        -33.3110   -61.7100   -11.6760 c3         1 UM9      -0.172000
      5 C3         -31.8510   -63.6920   -15.4710 c6         1 UM9       0.042700
      6 C4         -32.0970   -63.4640   -16.9900 c6         1 UM9       0.166300
      7 C5         -33.4050   -64.1710   -17.4590 c6         1 UM9       0.147300
      8 C6         -34.5940   -63.7000   -16.5680 c6         1 UM9       0.148300
      9 C1         -28.6790   -62.4050   -13.6630 c3         1 UM9      -0.181100
     10 O1         -29.8910   -64.4790   -13.4730 o          1 UM9      -0.589100
     11 N1         -30.6300   -62.9710   -15.0170 ns         1 UM9      -0.514900
     12 O2         -30.9790   -63.9370   -17.7640 oh         1 UM9      -0.645000
     13 O3         -33.6330   -63.9000   -18.8550 oh         1 UM9      -0.710000
     14 O5         -34.2790   -63.9520   -15.1750 os         1 UM9      -0.473000
     15 C8         -33.1260   -63.2370   -14.6940 c6         1 UM9       0.383300
     16 O6         -32.9820   -63.5130   -13.2920 os         1 UM9      -0.443000
     17 C11        -33.0560   -60.5400   -12.6770 c3         1 UM9      -0.078100
     18 C13        -31.9740   -62.1460   -10.9930 c          1 UM9       0.592100
     19 C14        -31.9790   -63.3920   -10.0970 c3         1 UM9      -0.196100
     20 O7         -30.9310   -61.5200   -11.1470 o          1 UM9      -0.537100
     21 H1         -33.8620   -60.3880   -10.0060 hc         1 UM9       0.041533
     22 H2         -35.2250   -60.8200   -11.0560 hc         1 UM9       0.041533
     23 H3         -34.5980   -61.9990    -9.8990 hc         1 UM9       0.041533
     24 H4         -34.8560   -62.6200   -12.9400 h1         1 UM9       0.053200
     25 H5         -34.2600   -63.6770   -11.6590 h1         1 UM9       0.053200
     26 H6         -36.1780   -64.2200   -17.9650 h1         1 UM9       0.034200
     27 H7         -35.7580   -65.5150   -16.8370 h1         1 UM9       0.034200
     28 H8         -31.7200   -64.7690   -15.2920 h1         1 UM9       0.121700
     29 H9         -32.2180   -62.3820   -17.1510 h1         1 UM9       0.040700
     30 H10        -33.2790   -65.2540   -17.3080 h1         1 UM9       0.063700
     31 H11        -34.7500   -62.6190   -16.7060 h1         1 UM9       0.060700
     32 H12        -28.0340   -62.7670   -12.8540 hc         1 UM9       0.066700
     33 H13        -28.1030   -62.1760   -14.5660 hc         1 UM9       0.066700
     34 H14        -29.1300   -61.4370   -13.4210 hc         1 UM9       0.066700
     35 H15        -30.4540   -62.0420   -15.3840 hn         1 UM9       0.305500
     36 H16        -30.1690   -63.6860   -17.2660 ho         1 UM9       0.453000
     37 H17        -32.7410   -63.9600   -19.2750 ho         1 UM9       0.509000
     38 H18        -37.8010   -64.6120   -16.3190 ho         1 UM9       0.505000
     39 H19        -33.2780   -62.1590   -14.8460 h2         1 UM9       0.023700
     40 H20        -32.7220   -59.6380   -12.1480 hc         1 UM9       0.041533
     41 H21        -32.2810   -60.7980   -13.4070 hc         1 UM9       0.041533
     42 H22        -33.9710   -60.2850   -13.2260 hc         1 UM9       0.041533
     43 H23        -31.0600   -63.4820    -9.5090 hc         1 UM9       0.066367
     44 H24        -32.8750   -63.4180    -9.4690 hc         1 UM9       0.066367
     45 H25        -32.1000   -64.2760   -10.7330 hc         1 UM9       0.066367
     46 C7         -35.9310   -64.4330   -16.9160 c3         1 UM9       0.168600
     47 O4         -37.0330   -64.0470   -16.0690 oh         1 UM9      -0.716000
@<TRIPOS>BOND
     1     1     4 1   
     2     1    21 1   
     3     1    22 1   
     4     1    23 1   
     5     2     4 1   
     6     2    16 1   
     7     2    24 1   
     8     2    25 1   
     9     3     9 1   
    10     3    10 2   
    11     3    11 1   
    12     4    17 1   
    13     4    18 1   
    14     5     6 1   
    15     5    11 1   
    16     5    15 1   
    17     5    28 1   
    18     6     7 1   
    19     6    12 1   
    20     6    29 1   
    21     7     8 1   
    22     7    13 1   
    23     7    30 1   
    24     8    14 1   
    25     8    31 1   
    26     8    46 1   
    27     9    32 1   
    28     9    33 1   
    29     9    34 1   
    30    11    35 1   
    31    12    36 1   
    32    13    37 1   
    33    14    15 1   
    34    15    16 1   
    35    15    39 1   
    36    17    40 1   
    37    17    41 1   
    38    17    42 1   
    39    18    19 1   
    40    18    20 2   
    41    19    43 1   
    42    19    44 1   
    43    19    45 1   
    44    26    46 1   
    45    27    46 1   
    46    38    47 1   
    47    46    47 1   
@<TRIPOS>SUBSTRUCTURE
     1 UM9         1 TEMP              0 ****  ****    0 ROOT
