@<TRIPOS>MOLECULE
UM9
   47    47     1     0     0
SMALL
abcg2


@<TRIPOS>ATOM
      1 C12        -34.1880   -61.1160   -10.5590 c3         1 UM9      -0.078100
      2 C9         -33.9420   -62.6150   -12.5370 c3         1 UM9       0.172600
      3 C2         -29.8170   -63.1000   -14.1580 c          1 UM9       0.604100
      4 C10        -33.1940   -61.6450   -11.6130 c3         1 UM9      -0.172000
      5 C3         -31.8790   -63.5750   -15.4350 c6         1 UM9       0.042700
      6 C4         -32.0500   -63.5560   -16.9570 c6         1 UM9       0.166300
      7 C5         -33.2910   -64.3210   -17.3920 c6         1 UM9       0.147300
      8 C6         -34.5080   -63.8630   -16.5710 c6         1 UM9       0.148300
      9 C1         -28.8580   -62.0130   -13.7410 c3         1 UM9      -0.181100
     10 O1         -29.7320   -64.2410   -13.7070 o          1 UM9      -0.589100
     11 N1         -30.7710   -62.7290   -15.0460 ns         1 UM9      -0.514900
     12 O2         -30.9190   -64.1360   -17.5960 oh         1 UM9      -0.645000
     13 O3         -33.4960   -64.0660   -18.7800 oh         1 UM9      -0.710000
     14 O5         -34.2310   -63.9980   -15.1770 os         1 UM9      -0.473000
     15 C8         -33.1760   -63.1530   -14.7440 c6         1 UM9       0.383300
     16 O6         -33.0160   -63.3120   -13.3800 os         1 UM9      -0.443000
     17 C11        -32.6230   -60.4750   -12.4170 c3         1 UM9      -0.078100
     18 C13        -32.0720   -62.3850   -10.8720 c          1 UM9       0.592100
     19 C14        -32.3660   -63.7470   -10.2980 c3         1 UM9      -0.196100
     20 O7         -30.9720   -61.8830   -10.7390 o          1 UM9      -0.537100
     21 H1         -33.6870   -60.4290    -9.8760 hc         1 UM9       0.041533
     22 H2         -34.9910   -60.5720   -11.0600 hc         1 UM9       0.041533
     23 H3         -34.6340   -61.9230    -9.9770 hc         1 UM9       0.041533
     24 H4         -34.6590   -62.0560   -13.1420 h1         1 UM9       0.053200
     25 H5         -34.4960   -63.3580   -11.9620 h1         1 UM9       0.053200
     26 H6         -35.8740   -64.7310   -17.9600 h1         1 UM9       0.034200
     27 H7         -35.6110   -65.6890   -16.4860 h1         1 UM9       0.034200
     28 H8         -31.6460   -64.5880   -15.1120 h1         1 UM9       0.121700
     29 H9         -32.1710   -62.5140   -17.2860 h1         1 UM9       0.040700
     30 H10        -33.1230   -65.3890   -17.2200 h1         1 UM9       0.063700
     31 H11        -34.7060   -62.8080   -16.8060 h1         1 UM9       0.060700
     32 H12        -27.8390   -62.3950   -13.7930 hc         1 UM9       0.066700
     33 H13        -28.9440   -61.1130   -14.3490 hc         1 UM9       0.066700
     34 H14        -29.0710   -61.7570   -12.7020 hc         1 UM9       0.066700
     35 H15        -30.8070   -61.7580   -15.3200 hn         1 UM9       0.305500
     36 H16        -30.1360   -63.6410   -17.3210 ho         1 UM9       0.453000
     37 H17        -33.8640   -64.8560   -19.1930 ho         1 UM9       0.509000
     38 H18        -37.6520   -64.5750   -16.4520 ho         1 UM9       0.505000
     39 H19        -33.4290   -62.1120   -14.9920 h2         1 UM9       0.023700
     40 H20        -32.1090   -59.7720   -11.7640 hc         1 UM9       0.041533
     41 H21        -31.9130   -60.8190   -13.1670 hc         1 UM9       0.041533
     42 H22        -33.4350   -59.9500   -12.9220 hc         1 UM9       0.041533
     43 H23        -31.6160   -64.0020    -9.5530 hc         1 UM9       0.066367
     44 H24        -33.3640   -63.8050    -9.8640 hc         1 UM9       0.066367
     45 H25        -32.3220   -64.4780   -11.1100 hc         1 UM9       0.066367
     46 C7         -35.7450   -64.6740   -16.8770 c3         1 UM9       0.168600
     47 O4         -36.8700   -64.0390   -16.2700 oh         1 UM9      -0.716000
@<TRIPOS>BOND
     1     1     4 1   
     2     1    21 1   
     3     1    22 1   
     4     1    23 1   
     5     2     4 1   
     6     2    16 1   
     7     2    24 1   
     8     2    25 1   
     9     3     9 1   
    10     3    10 2   
    11     3    11 1   
    12     4    17 1   
    13     4    18 1   
    14     5     6 1   
    15     5    11 1   
    16     5    15 1   
    17     5    28 1   
    18     6     7 1   
    19     6    12 1   
    20     6    29 1   
    21     7     8 1   
    22     7    13 1   
    23     7    30 1   
    24     8    14 1   
    25     8    31 1   
    26     8    46 1   
    27     9    32 1   
    28     9    33 1   
    29     9    34 1   
    30    11    35 1   
    31    12    36 1   
    32    13    37 1   
    33    14    15 1   
    34    15    16 1   
    35    15    39 1   
    36    17    40 1   
    37    17    41 1   
    38    17    42 1   
    39    18    19 1   
    40    18    20 2   
    41    19    43 1   
    42    19    44 1   
    43    19    45 1   
    44    26    46 1   
    45    27    46 1   
    46    38    47 1   
    47    46    47 1   
@<TRIPOS>SUBSTRUCTURE
     1 UM9         1 TEMP              0 ****  ****    0 ROOT
