@<TRIPOS>MOLECULE
UMA
   82    84     1     0     0
SMALL
bcc


@<TRIPOS>ATOM
      1 N1          -3.8820     0.9600    -2.0730 n          1 UMA      -0.388000
      2 C2          -2.8470     1.8770    -1.9280 c          1 UMA       0.815500
      3 N3          -3.0620     2.8620    -1.0030 ns         1 UMA      -0.618500
      4 C4          -4.1810     3.0400    -0.2140 c          1 UMA       0.731700
      5 C5          -5.2070     2.0440    -0.4110 cc         1 UMA      -0.362200
      6 C6          -5.0100     1.0670    -1.3070 cd         1 UMA       0.061600
      7 O2          -1.8240     1.8140    -2.5750 o          1 UMA      -0.583500
      8 O4          -4.2510     3.9710     0.5730 o          1 UMA      -0.650500
      9 C1B         -3.7700    -0.1600    -2.9920 c5         1 UMA       0.332500
     10 C2B         -3.4910     0.1790    -4.4550 c5         1 UMA       0.045100
     11 O8          -4.6900     0.5410    -5.0830 oh         1 UMA      -0.607800
     12 C3B         -2.8980    -1.1470    -4.9420 c5         1 UMA       0.074100
     13 C4B         -2.1030    -1.6030    -3.7210 c5         1 UMA       0.141100
     14 O4B         -2.7620    -1.0360    -2.5850 os         1 UMA      -0.362600
     15 O3B         -3.9100    -2.0870    -5.2010 oh         1 UMA      -0.596800
     16 C5B         -0.6490    -1.1820    -3.7870 c3         1 UMA       0.193400
     17 O5B          0.0250    -1.6710    -2.6470 os         1 UMA      -0.543200
     18 PA           1.6710    -1.6610    -2.7100 p5         1 UMA       1.451800
     19 O1A          2.1410    -2.8820    -3.4400 o          1 UMA      -0.848000
     20 O2A          2.1460    -0.3060    -3.1280 o          1 UMA      -0.848000
     21 O3A          1.8730    -1.8660    -1.0950 os         1 UMA      -0.706800
     22 PB           3.1460    -2.6910    -0.4510 p5         1 UMA       1.466800
     23 O1B          4.4200    -2.2340    -1.0810 o          1 UMA      -0.839500
     24 O2B          2.7840    -4.1350    -0.3240 o          1 UMA      -0.839500
     25 O1           3.1170    -1.9830     1.0420 os         1 UMA      -0.587200
     26 C1           2.2880    -2.4560     2.0630 c6         1 UMA       0.384900
     27 C9           1.5860    -1.2580     2.7150 c6         1 UMA       0.059700
     28 N2           0.8980    -0.4780     1.7240 ns         1 UMA      -0.547900
     29 C7          -0.4240    -0.5780     1.4780 c          1 UMA       0.702100
     30 O7          -1.1790    -1.2630     2.1540 o          1 UMA      -0.669100
     31 C8          -0.9040     0.1940     0.2810 c3         1 UMA      -0.185100
     32 C3           2.5850    -0.4150     3.4990 c6         1 UMA       0.113100
     33 O3           1.9500     0.5860     4.2630 os         1 UMA      -0.423600
     34 C10          3.3670    -1.3000     4.4670 c6         1 UMA       0.110100
     35 O9           4.3870    -0.5730     5.1040 oh         1 UMA      -0.616800
     36 C11          4.0090    -2.4610     3.7070 c6         1 UMA       0.159100
     37 O5           3.0120    -3.1820     3.0060 os         1 UMA      -0.415600
     38 C12          4.6950    -3.4350     4.6410 c3         1 UMA       0.145400
     39 O6           5.3460    -4.4190     3.8730 oh         1 UMA      -0.558800
     40 C18          1.9510     1.8980     3.7570 c3         1 UMA       0.079100
     41 C19          0.5980     2.2470     3.1350 c          1 UMA       0.647100
     42 O18         -0.4510     1.8510     3.6220 o          1 UMA      -0.619100
     43 C20          2.2190     2.8600     4.9060 c3         1 UMA      -0.091100
     44 N4           0.6760     3.0720     2.0870 ns         1 UMA      -0.545900
     45 C21         -0.4640     3.6520     1.4140 c3         1 UMA      -0.036300
     46 C22         -0.0190     4.1860     0.0380 c          1 UMA       0.937600
     47 O19          1.1940     4.3160    -0.1710 o          1 UMA      -0.817300
     48 O20         -0.9430     4.4960    -0.7550 o          1 UMA      -0.817300
     49 C23         -1.1020     4.7840     2.2200 c3         1 UMA      -0.087100
     50 HN3         -2.2610     3.5340    -0.8700 hn         1 UMA       0.429500
     51 H5          -6.1180     2.0860     0.1660 ha         1 UMA       0.138000
     52 H6          -5.7550     0.3000    -1.4720 h4         1 UMA       0.127000
     53 H1B         -4.7480    -0.6540    -2.9470 h2         1 UMA       0.041700
     54 H2B         -2.7350     0.9620    -4.5450 h1         1 UMA       0.103700
     55 HO2         -4.4830     1.0660    -5.8620 ho         1 UMA       0.399000
     56 H3B         -2.2500    -1.0050    -5.8170 h1         1 UMA       0.053700
     57 H4B         -2.1460    -2.6940    -3.6340 h1         1 UMA       0.089700
     58 HO3         -4.6000    -1.6390    -5.7050 ho         1 UMA       0.393000
     59 H5'1        -0.5650    -0.0950    -3.8540 h1         1 UMA       0.027200
     60 H5'2        -0.2340    -1.6080    -4.7090 h1         1 UMA       0.027200
     61 H1           1.5340    -3.1480     1.6770 h2         1 UMA       0.102700
     62 H2           0.8400    -1.6510     3.4080 h1         1 UMA       0.076700
     63 HN2          1.4650    -0.0150     1.0310 hn         1 UMA       0.344500
     64 H8'1        -1.8870     0.6120     0.4890 hc         1 UMA       0.071700
     65 H8'2        -0.2340     0.9990    -0.0130 hc         1 UMA       0.071700
     66 H8'3        -0.9940    -0.4740    -0.5760 hc         1 UMA       0.071700
     67 H3           3.3050     0.0430     2.8050 h1         1 UMA       0.074700
     68 H4           2.6610    -1.7180     5.2020 h1         1 UMA       0.030700
     69 HO4          3.9730     0.1090     5.6420 ho         1 UMA       0.401000
     70 H7           4.7560    -2.0540     3.0120 h1         1 UMA       0.086700
     71 H6'1         5.4010    -2.8780     5.2670 h1         1 UMA       0.006200
     72 H6'2         3.9450    -3.8740     5.3140 h1         1 UMA       0.006200
     73 HO6          5.8500    -4.9760     4.4710 ho         1 UMA       0.366000
     74 H18          2.7450     2.0160     3.0070 h1         1 UMA       0.052700
     75 H201         1.4580     2.7650     5.6810 hc         1 UMA       0.030367
     76 H202         3.1950     2.6610     5.3500 hc         1 UMA       0.030367
     77 H203         2.2170     3.8910     4.5520 hc         1 UMA       0.030367
     78 HN4          1.5750     3.3280     1.7050 hn         1 UMA       0.336500
     79 H21         -1.2170     2.8740     1.2680 h1         1 UMA       0.068700
     80 H231        -0.4130     5.6220     2.3350 hc         1 UMA       0.023367
     81 H232        -2.0020     5.1350     1.7180 hc         1 UMA       0.023367
     82 H233        -1.3860     4.4360     3.2130 hc         1 UMA       0.023367
@<TRIPOS>BOND
     1     1     2 1   
     2     1     6 1   
     3     1     9 1   
     4     2     3 1   
     5     2     7 2   
     6     3     4 1   
     7     3    50 1   
     8     4     5 1   
     9     4     8 2   
    10     5     6 2   
    11     5    51 1   
    12     6    52 1   
    13     9    10 1   
    14     9    14 1   
    15     9    53 1   
    16    10    11 1   
    17    10    12 1   
    18    10    54 1   
    19    11    55 1   
    20    12    13 1   
    21    12    15 1   
    22    12    56 1   
    23    13    14 1   
    24    13    16 1   
    25    13    57 1   
    26    15    58 1   
    27    16    17 1   
    28    16    59 1   
    29    16    60 1   
    30    17    18 1   
    31    18    19 1   
    32    18    20 1   
    33    18    21 1   
    34    21    22 1   
    35    22    23 1   
    36    22    24 1   
    37    22    25 1   
    38    25    26 1   
    39    26    27 1   
    40    26    37 1   
    41    26    61 1   
    42    27    28 1   
    43    27    32 1   
    44    27    62 1   
    45    28    29 1   
    46    28    63 1   
    47    29    30 2   
    48    29    31 1   
    49    31    64 1   
    50    31    65 1   
    51    31    66 1   
    52    32    33 1   
    53    32    34 1   
    54    32    67 1   
    55    33    40 1   
    56    34    35 1   
    57    34    36 1   
    58    34    68 1   
    59    35    69 1   
    60    36    37 1   
    61    36    38 1   
    62    36    70 1   
    63    38    39 1   
    64    38    71 1   
    65    38    72 1   
    66    39    73 1   
    67    40    41 1   
    68    40    43 1   
    69    40    74 1   
    70    41    42 2   
    71    41    44 1   
    72    43    75 1   
    73    43    76 1   
    74    43    77 1   
    75    44    45 1   
    76    44    78 1   
    77    45    46 1   
    78    45    49 1   
    79    45    79 1   
    80    46    47 1   
    81    46    48 1   
    82    49    80 1   
    83    49    81 1   
    84    49    82 1   
@<TRIPOS>SUBSTRUCTURE
     1 UMA         1 TEMP              0 ****  ****    0 ROOT
