@<TRIPOS>MOLECULE
UMA
   82    84     1     0     0
SMALL
No Charge or Current Charge


@<TRIPOS>ATOM
      1 N1          -3.1830     2.0070    -3.1990 n          1 UMA      -0.321000
      2 C2          -3.2440     2.4330    -1.8510 c          1 UMA       0.606000
      3 N3          -4.1180     3.4380    -1.5880 ns         1 UMA      -0.484500
      4 C4          -4.9320     4.0950    -2.4420 c          1 UMA       0.589200
      5 C5          -4.8250     3.6290    -3.8200 cc         1 UMA      -0.412200
      6 C6          -3.9720     2.6120    -4.1760 cd         1 UMA       0.011600
      7 O2          -2.5510     1.9780    -0.9580 o          1 UMA      -0.508000
      8 O4          -5.6760     4.9880    -2.0780 o          1 UMA      -0.575000
      9 C1B         -2.3450     0.8410    -3.5860 c5         1 UMA       0.355700
     10 C2B         -0.8420     1.2660    -3.5690 c5         1 UMA       0.068300
     11 O8          -0.4200     2.0670    -4.6990 oh         1 UMA      -0.730000
     12 C3B         -0.2170    -0.1550    -3.6230 c5         1 UMA       0.097300
     13 C4B         -1.1630    -0.9570    -2.6470 c5         1 UMA       0.164300
     14 O4B         -2.4490    -0.2720    -2.6820 os         1 UMA      -0.409000
     15 O3B         -0.2580    -0.6300    -4.9740 oh         1 UMA      -0.719000
     16 C5B         -0.6610    -0.9870    -1.1710 c3         1 UMA       0.216600
     17 O5B         -1.0810    -2.1950    -0.5200 os         1 UMA      -0.566400
     18 PA          -0.2160    -3.5470    -0.6710 p5         1 UMA       1.451800
     19 O1A         -1.0740    -4.7070    -0.2960 o          1 UMA      -0.848000
     20 O2A          0.3510    -3.6600    -2.0450 o          1 UMA      -0.848000
     21 O3A          0.8500    -3.1410     0.4140 os         1 UMA      -0.706800
     22 PB           1.6500    -4.3780     0.9710 p5         1 UMA       1.466800
     23 O1B          2.2070    -5.2720    -0.0850 o          1 UMA      -0.839500
     24 O2B          0.9230    -5.1230     2.0370 o          1 UMA      -0.839500
     25 O1           2.8580    -3.5430     1.6230 os         1 UMA      -0.610400
     26 C1           2.7650    -3.0730     2.9760 c6         1 UMA       0.431300
     27 C9           1.8640    -1.7970     3.1910 c6         1 UMA       0.059700
     28 N2           0.4390    -2.0270     2.8750 ns         1 UMA      -0.480900
     29 C7          -0.5320    -2.4160     3.7620 c          1 UMA       0.635100
     30 O7          -0.3210    -2.5300     4.9610 o          1 UMA      -0.669100
     31 C8          -1.8920    -2.6860     3.1380 c3         1 UMA      -0.185100
     32 C3           2.4840    -0.5920     2.4150 c6         1 UMA       0.136300
     33 O3           1.7690     0.6550     2.6480 os         1 UMA      -0.470000
     34 C10          3.9600    -0.3890     2.8660 c6         1 UMA       0.133300
     35 O9           4.5380     0.7250     2.1600 oh         1 UMA      -0.739000
     36 C11          4.7690    -1.7070     2.6860 c6         1 UMA       0.182300
     37 O5           4.1110    -2.7830     3.4110 os         1 UMA      -0.462000
     38 C12          6.2360    -1.5790     3.2180 c3         1 UMA       0.168600
     39 O6           6.9900    -2.8040     3.1370 oh         1 UMA      -0.681000
     40 C18          0.6240     0.9980     1.8170 c3         1 UMA       0.102300
     41 C19         -0.3730     1.9330     2.5890 c          1 UMA       0.580100
     42 O18         -0.5400     1.8630     3.8030 o          1 UMA      -0.619100
     43 C20          1.1700     1.5960     0.4920 c3         1 UMA      -0.091100
     44 N4          -1.0280     2.8920     1.8350 ns         1 UMA      -0.478900
     45 C21         -1.9490     3.9280     2.3650 c3         1 UMA      -0.036300
     46 C22         -2.7770     4.5540     1.2030 c          1 UMA       0.727000
     47 O19         -2.1960     5.2400     0.3740 o          1 UMA      -0.712000
     48 O20         -3.9550     4.2430     1.1010 o          1 UMA      -0.712000
     49 C23         -1.1980     5.0060     3.1850 c3         1 UMA      -0.087100
     50 HN3         -4.1390     3.7580    -0.6250 hn         1 UMA       0.429500
     51 H5          -5.4600     4.1280    -4.5420 ha         1 UMA       0.188000
     52 H6          -3.8550     2.2160    -5.1830 h4         1 UMA       0.177000
     53 H1B         -2.6520     0.5240    -4.5900 h2         1 UMA       0.041700
     54 H2B         -0.5830     1.7570    -2.6200 h1         1 UMA       0.103700
     55 HO2         -0.7900     2.9750    -4.5760 ho         1 UMA       0.498000
     56 H3B          0.8210    -0.1450    -3.2610 h1         1 UMA       0.053700
     57 H4B         -1.3000    -1.9840    -3.0090 h1         1 UMA       0.089700
     58 HO3         -0.1800     0.2020    -5.5050 ho         1 UMA       0.492000
     59 H5'1        -1.0460    -0.1130    -0.6330 h1         1 UMA       0.027200
     60 H5'2         0.4350    -0.9180    -1.1620 h1         1 UMA       0.027200
     61 H1           2.3720    -3.8800     3.6150 h2         1 UMA       0.102700
     62 H2           1.9220    -1.5480     4.2600 h1         1 UMA       0.076700
     63 HN2          0.1840    -2.0690     1.8920 hn         1 UMA       0.344500
     64 H8'1        -1.7830    -3.4700     2.3810 hc         1 UMA       0.071700
     65 H8'2        -2.6520    -2.9480     3.8810 hc         1 UMA       0.071700
     66 H8'3        -2.1890    -1.8200     2.5350 hc         1 UMA       0.071700
     67 H3           2.4780    -0.8220     1.3390 h1         1 UMA       0.074700
     68 H4           3.9470    -0.1560     3.9410 h1         1 UMA       0.030700
     69 HO4          3.8240     1.4060     2.1410 ho         1 UMA       0.500000
     70 H7           4.8190    -1.9640     1.6180 h1         1 UMA       0.086700
     71 H6'1         6.7480    -0.7970     2.6430 h1         1 UMA       0.006200
     72 H6'2         6.1950    -1.2400     4.2620 h1         1 UMA       0.006200
     73 HO6          7.8640    -2.6280     3.5520 ho         1 UMA       0.465000
     74 H18          0.0450     0.1050     1.5610 h1         1 UMA       0.052700
     75 H201         1.7020     2.5360     0.6820 hc         1 UMA       0.030367
     76 H202         1.8630     0.9040    -0.0000 hc         1 UMA       0.030367
     77 H203         0.3580     1.7980    -0.2150 hc         1 UMA       0.030367
     78 HN4         -0.8600     2.8780     0.8350 hn         1 UMA       0.336500
     79 H21         -2.6670     3.4330     3.0320 h1         1 UMA       0.068700
     80 H231        -0.4370     5.5040     2.5720 hc         1 UMA       0.023367
     81 H232        -1.9000     5.7660     3.5470 hc         1 UMA       0.023367
     82 H233        -0.7000     4.5650     4.0560 hc         1 UMA       0.023367
@<TRIPOS>BOND
     1     1     2 1   
     2     1     6 1   
     3     1     9 1   
     4     2     3 1   
     5     2     7 2   
     6     3     4 1   
     7     3    50 1   
     8     4     5 1   
     9     4     8 2   
    10     5     6 2   
    11     5    51 1   
    12     6    52 1   
    13     9    10 1   
    14     9    14 1   
    15     9    53 1   
    16    10    11 1   
    17    10    12 1   
    18    10    54 1   
    19    11    55 1   
    20    12    13 1   
    21    12    15 1   
    22    12    56 1   
    23    13    14 1   
    24    13    16 1   
    25    13    57 1   
    26    15    58 1   
    27    16    17 1   
    28    16    59 1   
    29    16    60 1   
    30    17    18 1   
    31    18    19 1   
    32    18    20 1   
    33    18    21 1   
    34    21    22 1   
    35    22    23 1   
    36    22    24 1   
    37    22    25 1   
    38    25    26 1   
    39    26    27 1   
    40    26    37 1   
    41    26    61 1   
    42    27    28 1   
    43    27    32 1   
    44    27    62 1   
    45    28    29 1   
    46    28    63 1   
    47    29    30 2   
    48    29    31 1   
    49    31    64 1   
    50    31    65 1   
    51    31    66 1   
    52    32    33 1   
    53    32    34 1   
    54    32    67 1   
    55    33    40 1   
    56    34    35 1   
    57    34    36 1   
    58    34    68 1   
    59    35    69 1   
    60    36    37 1   
    61    36    38 1   
    62    36    70 1   
    63    38    39 1   
    64    38    71 1   
    65    38    72 1   
    66    39    73 1   
    67    40    41 1   
    68    40    43 1   
    69    40    74 1   
    70    41    42 2   
    71    41    44 1   
    72    43    75 1   
    73    43    76 1   
    74    43    77 1   
    75    44    45 1   
    76    44    78 1   
    77    45    46 1   
    78    45    49 1   
    79    45    79 1   
    80    46    47 1   
    81    46    48 1   
    82    49    80 1   
    83    49    81 1   
    84    49    82 1   
@<TRIPOS>SUBSTRUCTURE
     1 UMA         1 TEMP              0 ****  ****    0 ROOT
