@<TRIPOS>MOLECULE
UMB
   46    48     1     0     0
SMALL
No Charge or Current Charge


@<TRIPOS>ATOM
      1 N1          41.2970    17.2760     8.4220 nb         1 UMB      -0.671000
      2 C4          43.9090    17.2780     9.5440 ca         1 UMB      -0.120600
      3 C5          42.8690    18.0640    10.0840 ca         1 UMB      -0.093000
      4 C6          41.5900    18.0350     9.5010 ca         1 UMB       0.351300
      5 C7          40.4560    18.8720    10.0750 c3         1 UMB      -0.079400
      6 C8          40.0740    18.4270    11.4820 ca         1 UMB      -0.083300
      7 C10         39.0130    16.8050    12.9660 ca         1 UMB      -0.110500
      8 C13         40.4360    19.2010    12.6020 ca         1 UMB      -0.099500
      9 C15         47.6060    16.4190    10.0730 cy         1 UMB       0.095700
     10 C17         49.3430    15.3100    10.6610 cy         1 UMB       0.152300
     11 O1          45.5340    18.0050    11.1500 o          1 UMB      -0.588100
     12 C14         45.2860    17.3090    10.1750 c          1 UMB       0.613700
     13 N2          46.2540    16.5130     9.5970 ns         1 UMB      -0.482900
     14 C18         48.6290    15.5330     9.2890 cy         1 UMB      -0.122400
     15 O2          50.2990    16.3000    11.0120 oh         1 UMB      -0.650000
     16 C16         47.9260    15.4950    11.2960 cy         1 UMB      -0.122400
     17 C3          43.5910    16.4850     8.4140 ca         1 UMB      -0.093000
     18 C2          42.2840    16.5040     7.8770 ca         1 UMB       0.290500
     19 C1          41.9540    15.6390     6.6520 c          1 UMB       0.504600
     20 O           42.7710    14.9140     6.0930 o          1 UMB      -0.608100
     21 N           40.6500    15.7220     6.2000 ns         1 UMB      -0.485900
     22 C           40.1120    14.9890     5.0520 c3         1 UMB       0.096300
     23 C12         40.0880    18.7780    13.8970 ca         1 UMB      -0.110500
     24 C11         39.3760    17.5810    14.0790 ca         1 UMB      -0.106000
     25 C9          39.3620    17.2270    11.6710 ca         1 UMB      -0.099500
     26 H1          43.0420    18.6940    10.9520 ha         1 UMB       0.145000
     27 H2          40.7550    19.9270    10.0760 hc         1 UMB       0.066200
     28 H3          39.5750    18.8190     9.4230 hc         1 UMB       0.066200
     29 H4          38.4630    15.8770    13.1050 ha         1 UMB       0.113000
     30 H5          40.9880    20.1290    12.4720 ha         1 UMB       0.112500
     31 H6          47.9820    17.4410    10.2190 h1         1 UMB       0.099700
     32 H7          49.7750    14.3100    10.7910 h1         1 UMB       0.050700
     33 H8          45.9730    15.9720     8.7910 hn         1 UMB       0.316500
     34 H9          48.2030    14.6220     8.8520 hc         1 UMB       0.063200
     35 H10         49.2150    16.0460     8.5200 hc         1 UMB       0.063200
     36 H11         50.6010    16.1080    11.9280 ho         1 UMB       0.445000
     37 H12         47.8940    15.9770    12.2780 hc         1 UMB       0.063200
     38 H13         47.3290    14.5770    11.3380 hc         1 UMB       0.063200
     39 H14         44.3360    15.8520     7.9400 ha         1 UMB       0.151000
     40 H15         40.0430    16.3470     6.7230 hn         1 UMB       0.343500
     41 H16         39.0520    15.2440     4.9190 h1         1 UMB       0.041033
     42 H17         40.6670    15.2630     4.1460 h1         1 UMB       0.041033
     43 H18         40.2060    13.9100     5.2260 h1         1 UMB       0.041033
     44 H19         40.3700    19.3800    14.7590 ha         1 UMB       0.113000
     45 H20         39.1070    17.2540    15.0820 ha         1 UMB       0.113000
     46 H21         39.0800    16.6190    10.8130 ha         1 UMB       0.112500
@<TRIPOS>BOND
     1     1     4 ar  
     2     1    18 ar  
     3     2     3 ar  
     4     2    12 1   
     5     2    17 ar  
     6     3     4 ar  
     7     3    26 1   
     8     4     5 1   
     9     5     6 1   
    10     5    27 1   
    11     5    28 1   
    12     6     8 ar  
    13     6    25 ar  
    14     7    24 ar  
    15     7    25 ar  
    16     7    29 1   
    17     8    23 ar  
    18     8    30 1   
    19     9    13 1   
    20     9    14 1   
    21     9    16 1   
    22     9    31 1   
    23    10    14 1   
    24    10    15 1   
    25    10    16 1   
    26    10    32 1   
    27    11    12 2   
    28    12    13 1   
    29    13    33 1   
    30    14    34 1   
    31    14    35 1   
    32    15    36 1   
    33    16    37 1   
    34    16    38 1   
    35    17    18 ar  
    36    17    39 1   
    37    18    19 1   
    38    19    20 2   
    39    19    21 1   
    40    21    22 1   
    41    21    40 1   
    42    22    41 1   
    43    22    42 1   
    44    22    43 1   
    45    23    24 ar  
    46    23    44 1   
    47    24    45 1   
    48    25    46 1   
@<TRIPOS>SUBSTRUCTURE
     1 UMB         1 TEMP              0 ****  ****    0 ROOT
