@<TRIPOS>MOLECULE
UMB
   46    48     1     0     0
SMALL
bcc


@<TRIPOS>ATOM
      1 N1          41.4790    17.4520     8.6960 nb         1 UMB      -0.671000
      2 C4          44.1660    17.5840     9.3430 ca         1 UMB      -0.120600
      3 C5          43.2460    18.4340     9.9370 ca         1 UMB      -0.176300
      4 C6          41.9010    18.3300     9.5960 ca         1 UMB       0.416600
      5 C7          40.8580    19.1840    10.2650 c3         1 UMB      -0.079400
      6 C8          40.1330    18.3980    11.3290 ca         1 UMB      -0.083300
      7 C10         38.3210    16.9500    12.0020 ca         1 UMB      -0.128500
      8 C13         40.6440    18.3270    12.6220 ca         1 UMB      -0.117500
      9 C15         47.7300    16.5100     9.9700 cy         1 UMB       0.095700
     10 C17         49.2980    15.2470    10.7060 cy         1 UMB       0.129100
     11 O1          46.0660    18.7880    10.0830 o          1 UMB      -0.588100
     12 C14         45.6130    17.7130     9.7230 c          1 UMB       0.680700
     13 N2          46.3360    16.5860     9.6350 ns         1 UMB      -0.549900
     14 C18         48.5180    15.3290     9.3840 cy         1 UMB      -0.122400
     15 O2          50.4900    15.9860    10.5920 oh         1 UMB      -0.587800
     16 C16         48.1500    16.0290    11.3750 cy         1 UMB      -0.122400
     17 C3          43.7130    16.6740     8.3950 ca         1 UMB      -0.176300
     18 C2          42.3570    16.6540     8.1060 ca         1 UMB       0.355800
     19 C1          41.8370    15.6890     7.0750 c          1 UMB       0.571600
     20 O           42.5950    14.9540     6.4570 o          1 UMB      -0.608100
     21 N           40.5140    15.7090     6.9090 ns         1 UMB      -0.552900
     22 C           39.8360    14.8480     5.9720 c3         1 UMB       0.096300
     23 C12         40.0000    17.5780    13.5980 ca         1 UMB      -0.128500
     24 C11         38.8360    16.8860    13.2900 ca         1 UMB      -0.124000
     25 C9          38.9670    17.7000    11.0280 ca         1 UMB      -0.117500
     26 H1          43.5610    19.1660    10.6680 ha         1 UMB       0.163000
     27 H2          41.3340    20.0610    10.7070 hc         1 UMB       0.066200
     28 H3          40.1520    19.5380     9.5130 hc         1 UMB       0.066200
     29 H4          37.4120    16.4160    11.7540 ha         1 UMB       0.131000
     30 H5          41.5510    18.8650    12.8700 ha         1 UMB       0.130500
     31 H6          48.2020    17.4600     9.7240 h1         1 UMB       0.099700
     32 H7          49.4850    14.2420    11.0970 h1         1 UMB       0.050700
     33 H8          45.8560    15.7120     9.4830 hn         1 UMB       0.316500
     34 H9          47.8830    14.4500     9.2590 hc         1 UMB       0.063200
     35 H10         49.0860    15.4890     8.4670 hc         1 UMB       0.063200
     36 H11         50.8310    16.1420    11.4780 ho         1 UMB       0.406000
     37 H12         48.4070    16.7820    12.1230 hc         1 UMB       0.063200
     38 H13         47.4040    15.3510    11.7950 hc         1 UMB       0.063200
     39 H14         44.3810    16.0090     7.8670 ha         1 UMB       0.169000
     40 H15         39.9830    16.3600     7.4660 hn         1 UMB       0.343500
     41 H16         38.7670    15.0270     6.0500 h1         1 UMB       0.041033
     42 H17         40.1440    15.0490     4.9450 h1         1 UMB       0.041033
     43 H18         40.0260    13.7960     6.1850 h1         1 UMB       0.041033
     44 H19         40.4070    17.5380    14.6010 ha         1 UMB       0.131000
     45 H20         38.3310    16.3040    14.0500 ha         1 UMB       0.131000
     46 H21         38.5570    17.7500    10.0260 ha         1 UMB       0.130500
@<TRIPOS>BOND
     1     1     4 ar  
     2     1    18 ar  
     3     2     3 ar  
     4     2    12 1   
     5     2    17 ar  
     6     3     4 ar  
     7     3    26 1   
     8     4     5 1   
     9     5     6 1   
    10     5    27 1   
    11     5    28 1   
    12     6     8 ar  
    13     6    25 ar  
    14     7    24 ar  
    15     7    25 ar  
    16     7    29 1   
    17     8    23 ar  
    18     8    30 1   
    19     9    13 1   
    20     9    14 1   
    21     9    16 1   
    22     9    31 1   
    23    10    14 1   
    24    10    15 1   
    25    10    16 1   
    26    10    32 1   
    27    11    12 2   
    28    12    13 1   
    29    13    33 1   
    30    14    34 1   
    31    14    35 1   
    32    15    36 1   
    33    16    37 1   
    34    16    38 1   
    35    17    18 ar  
    36    17    39 1   
    37    18    19 1   
    38    19    20 2   
    39    19    21 1   
    40    21    22 1   
    41    21    40 1   
    42    22    41 1   
    43    22    42 1   
    44    22    43 1   
    45    23    24 ar  
    46    23    44 1   
    47    24    45 1   
    48    25    46 1   
@<TRIPOS>SUBSTRUCTURE
     1 UMB         1 TEMP              0 ****  ****    0 ROOT
