@<TRIPOS>MOLECULE
UME
   46    48     1     0     0
SMALL
No Charge or Current Charge


@<TRIPOS>ATOM
      1 N1          41.2890    17.7320     8.9170 nb         1 UME      -0.675000
      2 N3          41.8950    14.9430     5.3030 nc         1 UME      -0.200800
      3 C4          42.9450    18.3060    10.5810 ca         1 UME      -0.107000
      4 C5          41.6500    18.4000    10.0390 ca         1 UME       0.357300
      5 C6          42.2090    16.9550     8.2930 ca         1 UME       0.335000
      6 C7          43.5270    16.8200     8.7800 ca         1 UME      -0.119000
      7 C8          41.7680    16.2430     7.0660 cd         1 UME       0.138000
      8 C13         40.1150    18.5770    12.0290 ca         1 UME      -0.080300
      9 C15         39.0290    16.6990    13.1550 ca         1 UME      -0.113000
     10 C17         39.9110    18.5490    14.4640 ca         1 UME      -0.113000
     11 O           45.6390    18.0140    11.5530 o          1 UME      -0.600100
     12 N           46.2160    16.6030     9.8760 ns         1 UME      -0.500900
     13 C1          47.6010    16.3920    10.2970 c3         1 UME       0.098000
     14 C           48.3390    15.4370     9.3460 c3         1 UME      -0.111100
     15 C3          43.9220    17.5060     9.9530 ca         1 UME      -0.112600
     16 N4          42.5790    15.4120     6.3120 nd         1 UME      -0.355000
     17 N2          40.6420    15.4690     5.4030 na         1 UME       0.120800
     18 C9          40.5240    16.2890     6.4950 cc         1 UME      -0.160000
     19 C11         40.5910    19.2590    10.7460 c3         1 UME      -0.060700
     20 C12         39.3900    19.6730     9.8540 c3         1 UME      -0.074100
     21 C18         40.3410    19.1800    13.2830 ca         1 UME      -0.099500
     22 C16         39.2550    17.3080    14.4000 ca         1 UME      -0.108000
     23 C14         39.4580    17.3300    11.9750 ca         1 UME      -0.099500
     24 H1          43.1800    18.8550    11.4900 ha         1 UME       0.144000
     25 H2          44.2210    16.1850     8.2390 ha         1 UME       0.144000
     26 H3          39.4300    14.0600     4.4140 h1         1 UME       0.065367
     27 H4          38.6760    15.6620     4.6650 h1         1 UME       0.065367
     28 H5          39.9410    15.4560     3.4180 h1         1 UME       0.065367
     29 H6          38.5230    15.7380    13.1040 ha         1 UME       0.111000
     30 H7          40.0870    19.0210    15.4280 ha         1 UME       0.111000
     31 H8          45.8880    16.1300     9.0440 hn         1 UME       0.318500
     32 H9          47.6050    15.9740    11.3130 h1         1 UME       0.055700
     33 H10         48.1190    17.3600    10.3200 h1         1 UME       0.055700
     34 H11         49.3740    15.2930     9.6810 hc         1 UME       0.042033
     35 H12         47.8470    14.4570     9.3210 hc         1 UME       0.042033
     36 H13         48.3610    15.8440     8.3280 hc         1 UME       0.042033
     37 H14         39.6190    16.8140     6.7700 h4         1 UME       0.180000
     38 H15         41.0860    20.2000    11.0180 hc         1 UME       0.058700
     39 H16         38.7190    20.3420    10.4060 hc         1 UME       0.040700
     40 H17         39.7370    20.2050     8.9600 hc         1 UME       0.040700
     41 H18         38.8080    18.8010     9.5330 hc         1 UME       0.040700
     42 H19         40.8480    20.1400    13.3480 ha         1 UME       0.115500
     43 H20         38.9230    16.8200    15.3140 ha         1 UME       0.111000
     44 H21         39.2820    16.8470    11.0160 ha         1 UME       0.115500
     45 C10         39.6080    15.1420     4.4140 c3         1 UME       0.061900
     46 C2          45.3160    17.4090    10.5400 c          1 UME       0.614700
@<TRIPOS>BOND
     1     1     4 ar  
     2     1     5 ar  
     3     2    16 2   
     4     2    17 1   
     5     3     4 ar  
     6     3    15 ar  
     7     3    24 1   
     8     4    19 1   
     9     5     6 ar  
    10     5     7 1   
    11     6    15 ar  
    12     6    25 1   
    13     7    16 1   
    14     7    18 2   
    15     8    19 1   
    16     8    21 ar  
    17     8    23 ar  
    18     9    22 ar  
    19     9    23 ar  
    20     9    29 1   
    21    10    21 ar  
    22    10    22 ar  
    23    10    30 1   
    24    11    46 2   
    25    12    13 1   
    26    12    31 1   
    27    12    46 1   
    28    13    14 1   
    29    13    32 1   
    30    13    33 1   
    31    14    34 1   
    32    14    35 1   
    33    14    36 1   
    34    15    46 1   
    35    17    18 1   
    36    17    45 1   
    37    18    37 1   
    38    19    20 1   
    39    19    38 1   
    40    20    39 1   
    41    20    40 1   
    42    20    41 1   
    43    21    42 1   
    44    22    43 1   
    45    23    44 1   
    46    26    45 1   
    47    27    45 1   
    48    28    45 1   
@<TRIPOS>SUBSTRUCTURE
     1 UME         1 TEMP              0 ****  ****    0 ROOT
