@<TRIPOS>MOLECULE
UME
   46    48     1     0     0
SMALL
abcg2


@<TRIPOS>ATOM
      1 N1          41.4120    17.7690     9.0900 nb         1 UME      -0.675000
      2 N3          41.7130    14.8270     5.6850 nc         1 UME      -0.200800
      3 C4          43.1790    18.4750    10.5130 ca         1 UME      -0.107000
      4 C5          41.8490    18.5020    10.1040 ca         1 UME       0.357300
      5 C6          42.2640    16.9800     8.4430 ca         1 UME       0.335000
      6 C7          43.6090    16.8860     8.7880 ca         1 UME      -0.119000
      7 C8          41.7180    16.2070     7.3320 cd         1 UME       0.138000
      8 C13         40.1310    18.5370    11.8860 ca         1 UME      -0.080300
      9 C15         38.5980    16.7710    12.4960 ca         1 UME      -0.113000
     10 C17         39.7000    18.0330    14.2130 ca         1 UME      -0.113000
     11 O           45.9900    18.6370    10.8250 o          1 UME      -0.600100
     12 N           46.1960    16.5250    10.0350 ns         1 UME      -0.500900
     13 C1          47.6010    16.3390    10.3360 c3         1 UME       0.098000
     14 C           48.3290    15.6830     9.1760 c3         1 UME      -0.111100
     15 C3          44.0730    17.6460     9.8510 ca         1 UME      -0.112600
     16 N4          42.4630    15.3710     6.5750 nd         1 UME      -0.355000
     17 N2          40.4830    15.2910     5.8460 na         1 UME       0.120800
     18 C9          40.4270    16.1610     6.8630 cc         1 UME      -0.160000
     19 C11         40.8460    19.3640    10.8370 c3         1 UME      -0.060700
     20 C12         39.8750    20.0680     9.8930 c3         1 UME      -0.074100
     21 C18         40.3490    18.7810    13.2390 ca         1 UME      -0.099500
     22 C16         38.8210    17.0250    13.8450 ca         1 UME      -0.108000
     23 C14         39.2480    17.5190    11.5260 ca         1 UME      -0.099500
     24 H1          43.5040    19.0900    11.3410 ha         1 UME       0.144000
     25 H2          44.2620    16.2480     8.2070 ha         1 UME       0.144000
     26 H3          39.8100    14.1220     4.2860 h1         1 UME       0.065367
     27 H4          38.6170    14.3970     5.5690 h1         1 UME       0.065367
     28 H5          39.0080    15.6970     4.4250 h1         1 UME       0.065367
     29 H6          37.9150    15.9860    12.1990 ha         1 UME       0.111000
     30 H7          39.8830    18.2400    15.2600 ha         1 UME       0.111000
     31 H8          45.6980    15.7150     9.6990 hn         1 UME       0.318500
     32 H9          47.7070    15.7330    11.2400 h1         1 UME       0.055700
     33 H10         48.0340    17.3130    10.5530 h1         1 UME       0.055700
     34 H11         49.3760    15.5240     9.4340 hc         1 UME       0.042033
     35 H12         47.8980    14.7110     8.9320 hc         1 UME       0.042033
     36 H13         48.2890    16.3080     8.2840 hc         1 UME       0.042033
     37 H14         39.5210    16.6560     7.1660 h4         1 UME       0.180000
     38 H15         41.4150    20.1340    11.3660 hc         1 UME       0.058700
     39 H16         39.2110    20.7210    10.4590 hc         1 UME       0.040700
     40 H17         40.4150    20.6830     9.1720 hc         1 UME       0.040700
     41 H18         39.2600    19.3630     9.3360 hc         1 UME       0.040700
     42 H19         41.0330    19.5680    13.5340 ha         1 UME       0.115500
     43 H20         38.3130    16.4400    14.6000 ha         1 UME       0.111000
     44 H21         39.0700    17.3040    10.4790 ha         1 UME       0.115500
     45 C10         39.4090    14.8530     4.9810 c3         1 UME       0.061900
     46 C2          45.5130    17.6490    10.2850 c          1 UME       0.614700
@<TRIPOS>BOND
     1     1     4 ar  
     2     1     5 ar  
     3     2    16 2   
     4     2    17 1   
     5     3     4 ar  
     6     3    15 ar  
     7     3    24 1   
     8     4    19 1   
     9     5     6 ar  
    10     5     7 1   
    11     6    15 ar  
    12     6    25 1   
    13     7    16 1   
    14     7    18 2   
    15     8    19 1   
    16     8    21 ar  
    17     8    23 ar  
    18     9    22 ar  
    19     9    23 ar  
    20     9    29 1   
    21    10    21 ar  
    22    10    22 ar  
    23    10    30 1   
    24    11    46 2   
    25    12    13 1   
    26    12    31 1   
    27    12    46 1   
    28    13    14 1   
    29    13    32 1   
    30    13    33 1   
    31    14    34 1   
    32    14    35 1   
    33    14    36 1   
    34    15    46 1   
    35    17    18 1   
    36    17    45 1   
    37    18    37 1   
    38    19    20 1   
    39    19    38 1   
    40    20    39 1   
    41    20    40 1   
    42    20    41 1   
    43    21    42 1   
    44    22    43 1   
    45    23    44 1   
    46    26    45 1   
    47    27    45 1   
    48    28    45 1   
@<TRIPOS>SUBSTRUCTURE
     1 UME         1 TEMP              0 ****  ****    0 ROOT
