@<TRIPOS>MOLECULE
UMG
  102   106     1     0     0
SMALL
No Charge or Current Charge


@<TRIPOS>ATOM
      1 O1          -0.1100     2.3500     7.9630 os         1 UMG      -0.335200
      2 C2           1.6310    -0.8870     7.6540 ca         1 UMG      -0.025000
      3 O2           0.1110     4.0820     9.4000 o          1 UMG      -0.488000
      4 C3           0.9570    -1.4190     6.5420 ca         1 UMG      -0.173000
      5 C4          -0.0640    -0.6960     5.9080 ca         1 UMG       0.191100
      6 C5          -0.4160     0.5760     6.4020 ca         1 UMG      -0.209000
      7 C6           0.2560     1.1090     7.5100 ca         1 UMG       0.208100
      8 C7           1.5440     2.2340     9.7070 cc         1 UMG      -0.344200
      9 C8           1.9600     0.9860     9.3080 cd         1 UMG       0.053600
     10 C1           1.2830     0.3880     8.1480 ca         1 UMG      -0.189800
     11 C9           0.4710     2.9730     9.0320 c          1 UMG       0.675300
     12 C10          3.0700     0.2760    10.0440 c3         1 UMG      -0.065900
     13 O3          -0.6820    -1.2870     4.8260 os         1 UMG      -0.385100
     14 C11         -1.7020    -0.6010     4.0670 c6         1 UMG       0.379300
     15 C12         -2.3610    -1.5620     3.0320 c6         1 UMG       0.047700
     16 C13         -1.3160    -1.9600     1.9470 c6         1 UMG       0.153300
     17 C14         -0.6730    -0.6910     1.2950 c6         1 UMG       0.158300
     18 C15         -0.0860     0.2200     2.4220 c6         1 UMG       0.149300
     19 O4          -1.1260     0.5350     3.3870 os         1 UMG      -0.448000
     20 N1          -2.9380    -2.7620     3.6940 ns         1 UMG      -0.514900
     21 C16          0.5210     1.5690     1.9160 c3         1 UMG       0.167600
     22 O5           0.9550     2.4350     2.9820 oh         1 UMG      -0.706000
     23 C17         -4.1590    -2.8020     4.3260 c          1 UMG       0.603100
     24 O6          -4.9190    -1.8470     4.3290 o          1 UMG      -0.590100
     25 C18         -4.4830    -4.1170     5.0170 c3         1 UMG      -0.181100
     26 O7           0.3300    -1.0830     0.3200 os         1 UMG      -0.432000
     27 O8          -1.9330    -2.8100     0.9570 oh         1 UMG      -0.685000
     28 C19          0.4500    -0.2460    -0.8460 c6         1 UMG       0.391300
     29 C20          1.7970    -0.5310    -1.5780 c6         1 UMG       0.032700
     30 C21          1.8420     0.3080    -2.8880 c6         1 UMG       0.163300
     31 C22          0.5770     0.0530    -3.7720 c6         1 UMG       0.150300
     32 C23         -0.7010     0.3040    -2.9060 c6         1 UMG       0.157300
     33 O9          -0.6490    -0.5330    -1.7240 os         1 UMG      -0.450000
     34 N2           2.9740    -0.2330    -0.7160 ns         1 UMG      -0.518900
     35 O10          0.6170     0.8870    -4.9600 os         1 UMG      -0.422000
     36 C24         -2.0540     0.0220    -3.6390 c3         1 UMG       0.171600
     37 O11         -3.2060     0.1790    -2.7870 oh         1 UMG      -0.705000
     38 C25          3.6190    -1.1420     0.0950 c          1 UMG       0.607100
     39 O12          3.3590    -2.3350     0.0850 o          1 UMG      -0.576100
     40 C26          4.6910    -0.5440     0.9930 c3         1 UMG      -0.188100
     41 O13          3.0600     0.0310    -3.6060 oh         1 UMG      -0.681000
     42 C27          0.0680     0.3140    -6.1630 c6         1 UMG       0.383300
     43 C28         -0.2140     1.4240    -7.2250 c6         1 UMG       0.084700
     44 C29         -0.7140     0.7260    -8.5250 c6         1 UMG       0.167300
     45 C30          0.2960    -0.3560    -9.0120 c6         1 UMG       0.095300
     46 C31          0.5560    -1.3630    -7.8470 c6         1 UMG       0.152300
     47 O14          1.0180    -0.6330    -6.6830 os         1 UMG      -0.445000
     48 N3          -1.2060     2.4230    -6.7470 ns         1 UMG      -0.499900
     49 O15         -0.2230    -1.0070   -10.1960 oh         1 UMG      -0.725000
     50 C32          1.6250    -2.4500    -8.2000 c3         1 UMG       0.172600
     51 O16          1.8990    -3.3520    -7.1100 oh         1 UMG      -0.701000
     52 O17         -0.9400     1.6750    -9.5780 oh         1 UMG      -0.641000
     53 C33         -0.9160     3.5700    -6.0470 c          1 UMG       0.613100
     54 O18          0.2250     3.9110    -5.7780 o          1 UMG      -0.586100
     55 C34         -2.1320     4.3920    -5.6440 c3         1 UMG      -0.185100
     56 H2           2.4180    -1.4750     8.1200 ha         1 UMG       0.119000
     57 H3           1.2280    -2.4020     6.1660 ha         1 UMG       0.130000
     58 H5          -1.1970     1.1700     5.9400 ha         1 UMG       0.162000
     59 H7           1.9880     2.7470    10.5510 ha         1 UMG       0.211000
     60 H101         3.4530     0.8740    10.8790 hc         1 UMG       0.053700
     61 H102         2.7200    -0.6770    10.4580 hc         1 UMG       0.053700
     62 H103         3.9140     0.0670     9.3760 hc         1 UMG       0.053700
     63 H11         -2.4890    -0.2540     4.7540 h2         1 UMG       0.096700
     64 H12         -3.1760    -1.0080     2.5420 h1         1 UMG       0.115700
     65 H13         -0.5090    -2.5160     2.4470 h1         1 UMG       0.057700
     66 H14         -1.4730    -0.1400     0.7790 h1         1 UMG       0.072700
     67 H15          0.7200    -0.3260     2.9340 h1         1 UMG       0.083700
     68 HN1         -2.3490    -3.5800     3.8150 hn         1 UMG       0.320500
     69 H161         1.3760     1.3390     1.2680 h1         1 UMG       0.027200
     70 H162        -0.2350     2.0780     1.3020 h1         1 UMG       0.027200
     71 HO5          1.2080     3.2950     2.5730 ho         1 UMG       0.504000
     72 H181        -5.4650    -4.1060     5.5050 hc         1 UMG       0.062700
     73 H182        -4.4010    -4.9330     4.2910 hc         1 UMG       0.062700
     74 H183        -3.6820    -4.3540     5.7260 hc         1 UMG       0.062700
     75 HO8         -2.5470    -3.4090     1.4380 ho         1 UMG       0.506000
     76 H19          0.4140     0.8130    -0.5580 h2         1 UMG       0.015700
     77 H20          1.8070    -1.5980    -1.8440 h1         1 UMG       0.122700
     78 H21          1.8320     1.3700    -2.6010 h1         1 UMG       0.037700
     79 H22          0.5920    -1.0040    -4.0780 h1         1 UMG       0.080700
     80 H23         -0.7140     1.3570    -2.5880 h1         1 UMG       0.061700
     81 HN2          3.2640     0.7340    -0.6110 hn         1 UMG       0.301500
     82 H241        -2.1370     0.7140    -4.4870 h1         1 UMG       0.027700
     83 H242        -2.0210    -0.9990    -4.0430 h1         1 UMG       0.027700
     84 HOB         -3.9880    -0.1360    -3.2960 ho         1 UMG       0.503000
     85 H261         5.1910    -1.2970     1.6110 hc         1 UMG       0.063367
     86 H262         5.4050     0.0130     0.3760 hc         1 UMG       0.063367
     87 H263         4.2420     0.2480     1.6040 hc         1 UMG       0.063367
     88 HOD          3.7730    -0.0320    -2.9320 ho         1 UMG       0.508000
     89 H27         -0.8700    -0.2090    -5.9350 h2         1 UMG       0.012700
     90 H28          0.7340     1.9360    -7.4400 h1         1 UMG       0.121700
     91 H29         -1.6610     0.2180    -8.2910 h1         1 UMG       0.034700
     92 H30          1.2480     0.1460    -9.2460 h1         1 UMG       0.063700
     93 H31         -0.3830    -1.8770    -7.5920 h1         1 UMG       0.056700
     94 HN3         -2.1840     2.2650    -6.9610 hn         1 UMG       0.303500
     95 HOF          0.5410    -1.3770   -10.6980 ho         1 UMG       0.513000
     96 H321         1.2660    -3.0200    -9.0670 h1         1 UMG       0.025700
     97 H322         2.5470    -1.9380    -8.5040 h1         1 UMG       0.025700
     98 HOG          2.6370    -3.9370    -7.4000 ho         1 UMG       0.506000
     99 HOH         -1.0000     1.1270   -10.3940 ho         1 UMG       0.457000
    100 H341        -1.8640     5.3020    -5.0960 hc         1 UMG       0.061700
    101 H342        -2.7230     4.6180    -6.5390 hc         1 UMG       0.061700
    102 H343        -2.8150     3.7580    -5.0670 hc         1 UMG       0.061700
@<TRIPOS>BOND
     1     1     7 1   
     2     1    11 1   
     3     2     4 ar  
     4     2    10 ar  
     5     2    56 1   
     6     3    11 2   
     7     4     5 ar  
     8     4    57 1   
     9     5     6 ar  
    10     5    13 1   
    11     6     7 ar  
    12     6    58 1   
    13     7    10 ar  
    14     8     9 2   
    15     8    11 1   
    16     8    59 1   
    17     9    10 1   
    18     9    12 1   
    19    12    60 1   
    20    12    61 1   
    21    12    62 1   
    22    13    14 1   
    23    14    15 1   
    24    14    19 1   
    25    14    63 1   
    26    15    16 1   
    27    15    20 1   
    28    15    64 1   
    29    16    17 1   
    30    16    27 1   
    31    16    65 1   
    32    17    18 1   
    33    17    26 1   
    34    17    66 1   
    35    18    19 1   
    36    18    21 1   
    37    18    67 1   
    38    20    23 1   
    39    20    68 1   
    40    21    22 1   
    41    21    69 1   
    42    21    70 1   
    43    22    71 1   
    44    23    24 2   
    45    23    25 1   
    46    25    72 1   
    47    25    73 1   
    48    25    74 1   
    49    26    28 1   
    50    27    75 1   
    51    28    29 1   
    52    28    33 1   
    53    28    76 1   
    54    29    30 1   
    55    29    34 1   
    56    29    77 1   
    57    30    31 1   
    58    30    41 1   
    59    30    78 1   
    60    31    32 1   
    61    31    35 1   
    62    31    79 1   
    63    32    33 1   
    64    32    36 1   
    65    32    80 1   
    66    34    38 1   
    67    34    81 1   
    68    35    42 1   
    69    36    37 1   
    70    36    82 1   
    71    36    83 1   
    72    37    84 1   
    73    38    39 2   
    74    38    40 1   
    75    40    85 1   
    76    40    86 1   
    77    40    87 1   
    78    41    88 1   
    79    42    43 1   
    80    42    47 1   
    81    42    89 1   
    82    43    44 1   
    83    43    48 1   
    84    43    90 1   
    85    44    45 1   
    86    44    52 1   
    87    44    91 1   
    88    45    46 1   
    89    45    49 1   
    90    45    92 1   
    91    46    47 1   
    92    46    50 1   
    93    46    93 1   
    94    48    53 1   
    95    48    94 1   
    96    49    95 1   
    97    50    51 1   
    98    50    96 1   
    99    50    97 1   
   100    51    98 1   
   101    52    99 1   
   102    53    54 2   
   103    53    55 1   
   104    55   100 1   
   105    55   101 1   
   106    55   102 1   
@<TRIPOS>SUBSTRUCTURE
     1 UMG         1 TEMP              0 ****  ****    0 ROOT
