@<TRIPOS>MOLECULE
UMG
  102   106     1     0     0
SMALL
bcc


@<TRIPOS>ATOM
      1 O1           1.2050     1.5070     8.2560 os         1 UMG      -0.335200
      2 C2           1.2950    -2.0350     7.4230 ca         1 UMG      -0.043000
      3 O2           1.9990     2.7280     9.8930 o          1 UMG      -0.563500
      4 C3           0.5750    -2.0220     6.2530 ca         1 UMG      -0.191000
      5 C4           0.0660    -0.8140     5.7590 ca         1 UMG       0.191100
      6 C5           0.2930     0.3730     6.4390 ca         1 UMG      -0.227000
      7 C6           1.0150     0.3270     7.6250 ca         1 UMG       0.208100
      8 C7           2.4400     0.4060     9.9760 cc         1 UMG      -0.294200
      9 C8           2.2770    -0.7960     9.3790 cd         1 UMG       0.053600
     10 C1           1.5330    -0.8580     8.1440 ca         1 UMG      -0.189800
     11 C9           1.8970     1.6210     9.4220 c          1 UMG       0.750800
     12 C10          2.8490    -2.0410     9.9670 c3         1 UMG      -0.065900
     13 O3          -0.6280    -0.9050     4.6080 os         1 UMG      -0.361900
     14 C11         -1.4430     0.1640     4.1750 c6         1 UMG       0.332900
     15 C12         -2.3730    -0.3990     3.1070 c6         1 UMG       0.047700
     16 C13         -1.5910    -0.7840     1.8460 c6         1 UMG       0.130100
     17 C14         -0.7310     0.3840     1.3770 c6         1 UMG       0.135100
     18 C15          0.1000     0.9510     2.5370 c6         1 UMG       0.126100
     19 O4          -0.7080     1.2220     3.6740 os         1 UMG      -0.401600
     20 N1          -3.1340    -1.5160     3.6010 ns         1 UMG      -0.581900
     21 C16          0.7650     2.2600     2.1690 c3         1 UMG       0.144400
     22 O5           1.6670     2.6120     3.1900 oh         1 UMG      -0.583800
     23 C17         -4.4780    -1.5190     3.7410 c          1 UMG       0.670100
     24 O6          -5.1810    -0.5610     3.4630 o          1 UMG      -0.590100
     25 C18         -5.0550    -2.8170     4.2450 c3         1 UMG      -0.181100
     26 O7           0.1760    -0.0860     0.3960 os         1 UMG      -0.385600
     27 O8          -2.4620    -1.1430     0.8100 oh         1 UMG      -0.562800
     28 C19          0.1600     0.4980    -0.8530 c6         1 UMG       0.344900
     29 C20          1.5130     0.2240    -1.5120 c6         1 UMG       0.032700
     30 C21          1.5070     0.6730    -2.9750 c6         1 UMG       0.140100
     31 C22          0.3060     0.0880    -3.7070 c6         1 UMG       0.127100
     32 C23         -0.9690     0.4230    -2.9190 c6         1 UMG       0.134100
     33 O9          -0.8630    -0.0840    -1.6060 os         1 UMG      -0.403600
     34 N2           2.5800     0.8810    -0.8010 ns         1 UMG      -0.585900
     35 O10          0.2440     0.6810    -4.9890 os         1 UMG      -0.375600
     36 C24         -2.2200    -0.1700    -3.5300 c3         1 UMG       0.148400
     37 O11         -3.3420     0.3960    -2.8980 oh         1 UMG      -0.582800
     38 C25          3.3880     0.2670     0.0960 c          1 UMG       0.674100
     39 O12          3.3950    -0.9400     0.2680 o          1 UMG      -0.576100
     40 C26          4.2670     1.2010     0.8880 c3         1 UMG      -0.188100
     41 O13          2.6800     0.2800    -3.6290 oh         1 UMG      -0.558800
     42 C27          0.1260    -0.1580    -6.0750 c6         1 UMG       0.336900
     43 C28         -0.4020     0.6710    -7.2540 c6         1 UMG       0.084700
     44 C29         -0.4060    -0.1820    -8.5160 c6         1 UMG       0.144100
     45 C30          0.9520    -0.8470    -8.7230 c6         1 UMG       0.072100
     46 C31          1.3540    -1.6030    -7.4520 c6         1 UMG       0.129100
     47 O14          1.3820    -0.6930    -6.3720 os         1 UMG      -0.398600
     48 N3          -1.7240     1.1660    -6.9730 ns         1 UMG      -0.566900
     49 O15          0.8170    -1.7060    -9.8340 oh         1 UMG      -0.602800
     50 C32          2.7220    -2.2360    -7.5720 c3         1 UMG       0.149400
     51 O16          2.9740    -3.0080    -6.4240 oh         1 UMG      -0.578800
     52 O17         -0.7590     0.6400    -9.5950 oh         1 UMG      -0.578800
     53 C33         -1.9930     2.4030    -6.5020 c          1 UMG       0.680100
     54 O18         -1.1530     3.2850    -6.4200 o          1 UMG      -0.586100
     55 C34         -3.4200     2.6030    -6.0570 c3         1 UMG      -0.185100
     56 H2           1.6760    -2.9780     7.7930 ha         1 UMG       0.137000
     57 H3           0.3910    -2.9400     5.7110 ha         1 UMG       0.148000
     58 H5          -0.0490     1.3310     6.0720 ha         1 UMG       0.180000
     59 H7           2.9920     0.5020    10.9010 ha         1 UMG       0.161000
     60 H101         3.3700    -1.8340    10.8990 hc         1 UMG       0.053700
     61 H102         2.0650    -2.7730    10.1650 hc         1 UMG       0.053700
     62 H103         3.5550    -2.5060     9.2770 hc         1 UMG       0.053700
     63 H11         -2.0200     0.5580     5.0180 h2         1 UMG       0.096700
     64 H12         -3.0800     0.3960     2.8580 h1         1 UMG       0.115700
     65 H13         -0.9120    -1.6140     2.0930 h1         1 UMG       0.057700
     66 H14         -1.3810     1.1690     0.9660 h1         1 UMG       0.072700
     67 H15          0.8770     0.2150     2.7870 h1         1 UMG       0.083700
     68 HN1         -2.6250    -2.3380     3.8870 hn         1 UMG       0.320500
     69 H161         1.2790     2.1380     1.2110 h1         1 UMG       0.027200
     70 H162        -0.0110     3.0240     2.0230 h1         1 UMG       0.027200
     71 HO5          2.0760     3.4480     2.9490 ho         1 UMG       0.405000
     72 H181        -5.8190    -2.6150     4.9940 hc         1 UMG       0.062700
     73 H182        -5.5390    -3.3380     3.4180 hc         1 UMG       0.062700
     74 H183        -4.3100    -3.4840     4.6750 hc         1 UMG       0.062700
     75 HO8         -2.8710    -1.9830     1.0410 ho         1 UMG       0.407000
     76 H19         -0.0070     1.5890    -0.7790 h2         1 UMG       0.015700
     77 H20          1.6940    -0.8530    -1.4770 h1         1 UMG       0.122700
     78 H21          1.3940     1.7710    -2.9990 h1         1 UMG       0.037700
     79 H22          0.4190    -1.0020    -3.7760 h1         1 UMG       0.080700
     80 H23         -1.0770     1.5210    -2.9010 h1         1 UMG       0.061700
     81 HN2          2.6190     1.8880    -0.8540 hn         1 UMG       0.301500
     82 H241        -2.2260     0.0450    -4.6030 h1         1 UMG       0.027700
     83 H242        -2.1890    -1.2620    -3.4180 h1         1 UMG       0.027700
     84 HOB         -4.1290    -0.0080    -3.2730 ho         1 UMG       0.404000
     85 H261         5.2140     0.7190     1.1220 hc         1 UMG       0.063367
     86 H262         4.4630     2.1420     0.3760 hc         1 UMG       0.063367
     87 H263         3.7710     1.4360     1.8320 hc         1 UMG       0.063367
     88 HOD          3.4200     0.7200    -3.1960 ho         1 UMG       0.409000
     89 H27         -0.5840    -0.9830    -5.8700 h2         1 UMG       0.012700
     90 H28          0.2670     1.5240    -7.3970 h1         1 UMG       0.121700
     91 H29         -1.1460    -0.9920    -8.3830 h1         1 UMG       0.034700
     92 H30          1.6990    -0.0640    -8.9140 h1         1 UMG       0.063700
     93 H31          0.6080    -2.3950    -7.2660 h1         1 UMG       0.056700
     94 HN3         -2.4820     0.5020    -7.0130 hn         1 UMG       0.303500
     95 HOF          1.6570    -1.7600   -10.2970 ho         1 UMG       0.414000
     96 H321         2.7370    -2.8520    -8.4790 h1         1 UMG       0.025700
     97 H322         3.4710    -1.4440    -7.7060 h1         1 UMG       0.025700
     98 HOG          3.8380    -3.4160    -6.5250 ho         1 UMG       0.407000
     99 HOH         -0.7670     0.0970   -10.3910 ho         1 UMG       0.418000
    100 H341        -3.7160     3.6410    -6.1930 hc         1 UMG       0.061700
    101 H342        -4.1240     1.9610    -6.5850 hc         1 UMG       0.061700
    102 H343        -3.4970     2.3700    -4.9920 hc         1 UMG       0.061700
@<TRIPOS>BOND
     1     1     7 1   
     2     1    11 1   
     3     2     4 ar  
     4     2    10 ar  
     5     2    56 1   
     6     3    11 2   
     7     4     5 ar  
     8     4    57 1   
     9     5     6 ar  
    10     5    13 1   
    11     6     7 ar  
    12     6    58 1   
    13     7    10 ar  
    14     8     9 2   
    15     8    11 1   
    16     8    59 1   
    17     9    10 1   
    18     9    12 1   
    19    12    60 1   
    20    12    61 1   
    21    12    62 1   
    22    13    14 1   
    23    14    15 1   
    24    14    19 1   
    25    14    63 1   
    26    15    16 1   
    27    15    20 1   
    28    15    64 1   
    29    16    17 1   
    30    16    27 1   
    31    16    65 1   
    32    17    18 1   
    33    17    26 1   
    34    17    66 1   
    35    18    19 1   
    36    18    21 1   
    37    18    67 1   
    38    20    23 1   
    39    20    68 1   
    40    21    22 1   
    41    21    69 1   
    42    21    70 1   
    43    22    71 1   
    44    23    24 2   
    45    23    25 1   
    46    25    72 1   
    47    25    73 1   
    48    25    74 1   
    49    26    28 1   
    50    27    75 1   
    51    28    29 1   
    52    28    33 1   
    53    28    76 1   
    54    29    30 1   
    55    29    34 1   
    56    29    77 1   
    57    30    31 1   
    58    30    41 1   
    59    30    78 1   
    60    31    32 1   
    61    31    35 1   
    62    31    79 1   
    63    32    33 1   
    64    32    36 1   
    65    32    80 1   
    66    34    38 1   
    67    34    81 1   
    68    35    42 1   
    69    36    37 1   
    70    36    82 1   
    71    36    83 1   
    72    37    84 1   
    73    38    39 2   
    74    38    40 1   
    75    40    85 1   
    76    40    86 1   
    77    40    87 1   
    78    41    88 1   
    79    42    43 1   
    80    42    47 1   
    81    42    89 1   
    82    43    44 1   
    83    43    48 1   
    84    43    90 1   
    85    44    45 1   
    86    44    52 1   
    87    44    91 1   
    88    45    46 1   
    89    45    49 1   
    90    45    92 1   
    91    46    47 1   
    92    46    50 1   
    93    46    93 1   
    94    48    53 1   
    95    48    94 1   
    96    49    95 1   
    97    50    51 1   
    98    50    96 1   
    99    50    97 1   
   100    51    98 1   
   101    52    99 1   
   102    53    54 2   
   103    53    55 1   
   104    55   100 1   
   105    55   101 1   
   106    55   102 1   
@<TRIPOS>SUBSTRUCTURE
     1 UMG         1 TEMP              0 ****  ****    0 ROOT
