@<TRIPOS>MOLECULE
UMH
   23    24     1     0     0
SMALL
bcc


@<TRIPOS>ATOM
      1 C10         -3.0960    -0.5110    12.5800 ca         1 UMH       0.358600
      2 C13         -1.3340    -2.3000     9.1180 c          1 UMH       0.929200
      3 C01         -1.3460     2.3230    16.3560 c3         1 UMH       0.135700
      4 C03         -1.5670     1.0310    14.3700 ca         1 UMH       0.101100
      5 C04         -0.9690     0.4850    13.2570 ca         1 UMH      -0.147000
      6 C05         -1.7160    -0.2910    12.3510 ca         1 UMH      -0.120300
      7 C06         -1.1460    -0.8820    11.2010 ca         1 UMH      -0.095000
      8 C07         -1.9180    -1.6370    10.3610 ca         1 UMH      -0.238900
      9 C08         -3.2890    -1.7850    10.6940 ca         1 UMH       0.443200
     10 C11         -3.6850     0.0650    13.7230 ca         1 UMH      -0.137300
     11 C12         -2.9470     0.8160    14.5990 ca         1 UMH      -0.216000
     12 N09         -3.8600    -1.2540    11.7410 nb         1 UMH      -0.709000
     13 O02         -0.7820     1.7530    15.1930 os         1 UMH      -0.328900
     14 O14         -0.1250    -2.1000     8.9040 o          1 UMH      -0.818300
     15 O15         -2.1240    -2.9810     8.4370 o          1 UMH      -0.818300
     16 H1          -0.5370     2.8370    16.8690 h1         1 UMH       0.028700
     17 H2          -2.1280     3.0510    16.1220 h1         1 UMH       0.028700
     18 H3          -1.7590     1.5660    17.0270 h1         1 UMH       0.028700
     19 H4           0.0870     0.6470    13.0750 ha         1 UMH       0.139000
     20 H5          -0.0940    -0.7350    10.9910 ha         1 UMH       0.154000
     21 H6          -3.9230    -2.3760    10.0430 h4         1 UMH       0.035100
     22 H7          -4.7400    -0.0990    13.9040 ha         1 UMH       0.131000
     23 H8          -3.4370     1.2380    15.4650 ha         1 UMH       0.116000
@<TRIPOS>BOND
     1     1     6 ar  
     2     1    10 ar  
     3     1    12 ar  
     4     2     8 1   
     5     2    14 1   
     6     2    15 1   
     7     3    13 1   
     8     3    16 1   
     9     3    17 1   
    10     3    18 1   
    11     4     5 ar  
    12     4    11 ar  
    13     4    13 1   
    14     5     6 ar  
    15     5    19 1   
    16     6     7 ar  
    17     7     8 ar  
    18     7    20 1   
    19     8     9 ar  
    20     9    12 ar  
    21     9    21 1   
    22    10    11 ar  
    23    10    22 1   
    24    11    23 1   
@<TRIPOS>SUBSTRUCTURE
     1 UMH         1 TEMP              0 ****  ****    0 ROOT
