@<TRIPOS>MOLECULE
UMH
   23    24     1     0     0
SMALL
No Charge or Current Charge


@<TRIPOS>ATOM
      1 C10         -3.1230    -0.5380    12.5710 ca         1 UMH       0.228000
      2 C13         -1.3440    -2.2960     9.0960 c          1 UMH       0.718600
      3 C01         -1.3050     2.3890    16.4130 c3         1 UMH       0.158900
      4 C03         -1.5790     1.0190    14.3790 ca         1 UMH       0.101100
      5 C04         -0.9790     0.4500    13.2450 ca         1 UMH      -0.129000
      6 C05         -1.7400    -0.3220    12.3460 ca         1 UMH      -0.055000
      7 C06         -1.1300    -0.8880    11.2120 ca         1 UMH      -0.077000
      8 C07         -1.9190    -1.6570    10.3290 ca         1 UMH      -0.173600
      9 C08         -3.2820    -1.8210    10.6280 ca         1 UMH       0.377900
     10 C11         -3.7120     0.0390    13.7130 ca         1 UMH      -0.054000
     11 C12         -2.9540     0.8110    14.6140 ca         1 UMH      -0.198000
     12 N09         -3.8750    -1.2770    11.7210 nb         1 UMH      -0.709000
     13 O02         -0.7850     1.7660    15.2250 os         1 UMH      -0.352100
     14 O14         -0.1550    -2.1370     8.8600 o          1 UMH      -0.713000
     15 O15         -2.0840    -2.9480     8.3760 o          1 UMH      -0.713000
     16 H1          -0.5080     2.9310    16.9370 h1         1 UMH       0.028700
     17 H2          -2.0970     3.1070    16.1620 h1         1 UMH       0.028700
     18 H3          -1.7150     1.6380    17.1000 h1         1 UMH       0.028700
     19 H4           0.0810     0.6120    13.0660 ha         1 UMH       0.121000
     20 H5          -0.0700    -0.7330    11.0230 ha         1 UMH       0.136000
     21 H6          -3.9370    -2.4040     9.9820 h4         1 UMH       0.035100
     22 H7          -4.7710    -0.1160    13.9020 ha         1 UMH       0.113000
     23 H8          -3.4520     1.2360    15.4810 ha         1 UMH       0.098000
@<TRIPOS>BOND
     1     1     6 ar  
     2     1    10 ar  
     3     1    12 ar  
     4     2     8 1   
     5     2    14 1   
     6     2    15 1   
     7     3    13 1   
     8     3    16 1   
     9     3    17 1   
    10     3    18 1   
    11     4     5 ar  
    12     4    11 ar  
    13     4    13 1   
    14     5     6 ar  
    15     5    19 1   
    16     6     7 ar  
    17     7     8 ar  
    18     7    20 1   
    19     8     9 ar  
    20     9    12 ar  
    21     9    21 1   
    22    10    11 ar  
    23    10    22 1   
    24    11    23 1   
@<TRIPOS>SUBSTRUCTURE
     1 UMH         1 TEMP              0 ****  ****    0 ROOT
