@<TRIPOS>MOLECULE
UMI
   70    74     1     0     0
SMALL
abcg2


@<TRIPOS>ATOM
      1 C1         -14.9160    -3.3640     7.8720 ca         1 UMI      -0.041000
      2 C10        -13.1020     2.2590     6.7090 cc         1 UMI      -0.156100
      3 C11        -16.3090     1.1350     3.9140 c5         1 UMI      -0.079000
      4 C12        -12.3000     0.1790     6.9320 ca         1 UMI      -0.045200
      5 C14        -16.6870     2.6290     3.9570 c5         1 UMI      -0.082400
      6 C15        -15.3750     3.3170     4.3130 c5         1 UMI       0.170800
      7 C16        -12.2580     0.5230     5.5540 ca         1 UMI      -0.091800
      8 C17        -14.8850     1.1900     3.3200 c5         1 UMI       0.174800
      9 C18        -11.8940    -1.0700     7.3990 ca         1 UMI      -0.113000
     10 C19        -11.4310    -1.9840     6.4670 ca         1 UMI      -0.094000
     11 C2         -14.8040    -2.6570     9.0750 ca         1 UMI      -0.098300
     12 C20        -11.3690    -1.6620     5.0980 ca         1 UMI      -0.142000
     13 C21        -11.7770    -0.4210     4.6360 ca         1 UMI      -0.072000
     14 C22        -17.2560     0.3080     3.0150 c3         1 UMI      -0.023100
     15 C23        -18.6810     0.2580     3.5010 ca         1 UMI      -0.083300
     16 C24        -19.1260    -0.7550     4.3550 ca         1 UMI      -0.081000
     17 C25        -20.4280    -0.7670     4.8390 ca         1 UMI      -0.114000
     18 C26        -21.3200     0.2370     4.4790 ca         1 UMI      -0.060000
     19 C27        -20.8900     1.2410     3.6200 ca         1 UMI      -0.188300
     20 C28        -19.5850     1.2500     3.1320 ca         1 UMI      -0.059000
     21 C29        -21.8080     2.3540     3.2090 c3         1 UMI       0.343300
     22 C3         -15.0910    -1.2940     9.0330 ca         1 UMI       0.174000
     23 C30        -16.2700     0.6090     5.3560 c3         1 UMI       0.222800
     24 C4         -15.4680    -0.6510     7.8570 ca         1 UMI      -0.195000
     25 C5         -15.5220    -1.3620     6.6520 ca         1 UMI       0.345000
     26 C6         -15.2590    -2.7450     6.6890 ca         1 UMI      -0.177000
     27 C7         -14.4050    -3.3720    10.3340 c3         1 UMI       0.212900
     28 C9         -12.7820     1.8610     5.4340 cd         1 UMI      -0.187400
     29 F30        -21.8420     2.5190     1.8640 f          1 UMI      -0.113333
     30 F31        -23.0810     2.1650     3.6090 f          1 UMI      -0.113333
     31 F32        -21.4180     3.5520     3.7190 f          1 UMI      -0.113333
     32 N11        -12.7930     1.2650     7.6130 na         1 UMI      -0.224700
     33 N12        -15.7840    -0.7510     5.4510 nu         1 UMI      -0.961200
     34 N16        -14.3610     2.5420     3.5930 n3         1 UMI      -0.746600
     35 N8         -15.0110    -0.5620    10.2810 nh         1 UMI      -0.210400
     36 O10        -16.2780    -0.6220    10.9290 oh         1 UMI      -0.487300
     37 O11        -14.7570     0.8120     9.9850 oh         1 UMI      -0.487300
     38 O9         -13.2110    -4.1320    10.0770 oh         1 UMI      -0.670000
     39 H1         -14.7060    -4.4260     7.8720 ha         1 UMI       0.125000
     40 H3         -17.0220     2.9480     2.9680 hc         1 UMI       0.055700
     41 H4         -17.4830     2.8450     4.6700 hc         1 UMI       0.055700
     42 H5         -15.2200     3.2970     5.3990 h1         1 UMI       0.038200
     43 H6         -15.3520     4.3640     4.0020 h1         1 UMI       0.038200
     44 H7         -14.9200     1.0120     2.2400 h1         1 UMI       0.056700
     45 H8         -14.2580     0.4150     3.7610 h1         1 UMI       0.056700
     46 H9         -11.9620    -1.3240     8.4480 ha         1 UMI       0.124000
     47 H10        -11.1210    -2.9690     6.7960 ha         1 UMI       0.113000
     48 H11        -11.0010    -2.4010     4.3970 ha         1 UMI       0.106000
     49 H12        -11.7350    -0.1890     3.5790 ha         1 UMI       0.109000
     50 H13        -16.8700    -0.7090     2.9050 hc         1 UMI       0.054700
     51 H14        -17.2320     0.7560     2.0200 hc         1 UMI       0.054700
     52 H15        -18.4440    -1.5440     4.6470 ha         1 UMI       0.114000
     53 H16        -20.7510    -1.5620     5.4980 ha         1 UMI       0.123000
     54 H17        -22.3340     0.2300     4.8530 ha         1 UMI       0.133000
     55 H18        -19.2700     2.0360     2.4580 ha         1 UMI       0.129000
     56 H19        -15.5990     1.2450     5.9330 h1         1 UMI       0.046700
     57 H20        -17.2680     0.7080     5.8040 h1         1 UMI       0.046700
     58 H21        -15.6720     0.4060     7.8770 ha         1 UMI       0.130000
     59 H22        -15.3130    -3.3170     5.7700 ha         1 UMI       0.115000
     60 H23        -14.2350    -2.6540    11.1360 h1         1 UMI       0.040700
     61 H24        -15.2070    -4.0490    10.6510 h1         1 UMI       0.040700
     62 H28        -16.0010    -1.3730     4.6900 hn         1 UMI       0.475000
     63 H30        -13.0520    -4.6990    10.8420 ho         1 UMI       0.441000
     64 H27        -13.1510     1.2260     8.5570 hn         1 UMI       0.360000
     65 H29        -16.9490    -0.3950    10.2580 ho         1 UMI       0.455000
     66 H31        -14.3320     1.1310    10.7940 ho         1 UMI       0.455000
     67 C8         -13.0060     2.6180     4.1530 c3         1 UMI       0.254000
     68 H2         -13.5200     3.1910     7.0530 h4         1 UMI       0.208000
     69 H25        -12.3060     2.2530     3.3970 h1         1 UMI       0.055700
     70 H26        -12.7820     3.6780     4.2970 h1         1 UMI       0.055700
@<TRIPOS>BOND
     1     1    11 ar  
     2     1    26 ar  
     3     1    39 1   
     4     2    28 2   
     5     2    32 1   
     6     2    68 1   
     7     3     5 1   
     8     3     8 1   
     9     3    14 1   
    10     3    23 1   
    11     4     7 ar  
    12     4     9 ar  
    13     4    32 1   
    14     5     6 1   
    15     5    40 1   
    16     5    41 1   
    17     6    34 1   
    18     6    42 1   
    19     6    43 1   
    20     7    13 ar  
    21     7    28 1   
    22     8    34 1   
    23     8    44 1   
    24     8    45 1   
    25     9    10 ar  
    26     9    46 1   
    27    10    12 ar  
    28    10    47 1   
    29    11    22 ar  
    30    11    27 1   
    31    12    13 ar  
    32    12    48 1   
    33    13    49 1   
    34    14    15 1   
    35    14    50 1   
    36    14    51 1   
    37    15    16 ar  
    38    15    20 ar  
    39    16    17 ar  
    40    16    52 1   
    41    17    18 ar  
    42    17    53 1   
    43    18    19 ar  
    44    18    54 1   
    45    19    20 ar  
    46    19    21 1   
    47    20    55 1   
    48    21    29 1   
    49    21    30 1   
    50    21    31 1   
    51    22    24 ar  
    52    22    35 1   
    53    23    33 1   
    54    23    56 1   
    55    23    57 1   
    56    24    25 ar  
    57    24    58 1   
    58    25    26 ar  
    59    25    33 1   
    60    26    59 1   
    61    27    38 1   
    62    27    60 1   
    63    27    61 1   
    64    28    67 1   
    65    32    64 1   
    66    33    62 1   
    67    34    67 1   
    68    35    36 1   
    69    35    37 1   
    70    36    65 1   
    71    37    66 1   
    72    38    63 1   
    73    67    69 1   
    74    67    70 1   
@<TRIPOS>SUBSTRUCTURE
     1 UMI         1 TEMP              0 ****  ****    0 ROOT
