@<TRIPOS>MOLECULE
UMI
   70    74     1     0     0
SMALL
No Charge or Current Charge


@<TRIPOS>ATOM
      1 C1         -14.5070    -3.4040     7.6840 ca         1 UMI      -0.041000
      2 C10        -12.9070     2.6340     6.5310 cc         1 UMI      -0.156100
      3 C11        -16.3650     1.0710     3.8750 c5         1 UMI      -0.079000
      4 C12        -12.2890     0.4950     7.0680 ca         1 UMI      -0.045200
      5 C14        -16.6450     2.6030     3.7340 c5         1 UMI      -0.082400
      6 C15        -15.3140     3.2110     4.2200 c5         1 UMI       0.170800
      7 C16        -12.3200     0.5540     5.7020 ca         1 UMI      -0.091800
      8 C17        -14.9160     1.0200     3.2810 c5         1 UMI       0.174800
      9 C18        -11.9400    -0.6820     7.7470 ca         1 UMI      -0.113000
     10 C19        -11.6140    -1.8180     6.9740 ca         1 UMI      -0.094000
     11 C2         -14.5280    -2.7800     8.9520 ca         1 UMI      -0.098300
     12 C20        -11.6440    -1.7540     5.5600 ca         1 UMI      -0.142000
     13 C21        -11.9990    -0.5550     4.9050 ca         1 UMI      -0.072000
     14 C22        -17.3890     0.2320     3.0410 c3         1 UMI      -0.023100
     15 C23        -18.8440     0.3490     3.4970 ca         1 UMI      -0.083300
     16 C24        -19.3810    -0.5770     4.4110 ca         1 UMI      -0.081000
     17 C25        -20.7140    -0.4610     4.8330 ca         1 UMI      -0.114000
     18 C26        -21.5260     0.5740     4.3400 ca         1 UMI      -0.060000
     19 C27        -21.0090     1.5010     3.4090 ca         1 UMI      -0.188300
     20 C28        -19.6640     1.3800     2.9980 ca         1 UMI      -0.059000
     21 C29        -21.8780     2.6420     2.8680 c3         1 UMI       0.343300
     22 C3         -15.1150    -1.4900     9.0800 ca         1 UMI       0.174000
     23 C30        -16.3640     0.5930     5.3680 c3         1 UMI       0.222800
     24 C4         -15.6150    -0.8470     7.9260 ca         1 UMI      -0.195000
     25 C5         -15.5610    -1.4670     6.6700 ca         1 UMI       0.345000
     26 C6         -15.0180    -2.7490     6.5550 ca         1 UMI      -0.177000
     27 C7         -13.9180    -3.5020    10.1610 c3         1 UMI       0.212900
     28 C9         -12.7240     1.9030     5.3600 cd         1 UMI      -0.187400
     29 F30        -21.6170     2.9070     1.5670 f          1 UMI      -0.113333
     30 F31        -23.2020     2.3730     2.9470 f          1 UMI      -0.113333
     31 F32        -21.6670     3.7880     3.5540 f          1 UMI      -0.113333
     32 N11        -12.6410     1.7320     7.5830 na         1 UMI      -0.224700
     33 N12        -16.0470    -0.8400     5.5240 nu         1 UMI      -0.961200
     34 N16        -14.3270     2.3830     3.4840 n3         1 UMI      -0.746600
     35 N8         -15.2140    -0.8360    10.3520 nh         1 UMI      -0.210400
     36 O10        -15.7990    -1.4890    11.4340 oh         1 UMI      -0.487300
     37 O11        -15.6210     0.4940    10.4690 oh         1 UMI      -0.487300
     38 O9         -12.8290    -4.3610     9.7870 oh         1 UMI      -0.670000
     39 H1         -14.0810    -4.3980     7.5660 ha         1 UMI       0.125000
     40 H3         -16.8470     2.8910     2.6960 hc         1 UMI       0.055700
     41 H4         -17.4950     2.9380     4.3380 hc         1 UMI       0.055700
     42 H5         -15.2120     3.1250     5.3080 h1         1 UMI       0.038200
     43 H6         -15.2300     4.2760     3.9630 h1         1 UMI       0.038200
     44 H7         -14.9400     0.7890     2.2070 h1         1 UMI       0.056700
     45 H8         -14.3210     0.2290     3.7540 h1         1 UMI       0.056700
     46 H9         -11.9230    -0.7210     8.8330 ha         1 UMI       0.124000
     47 H10        -11.3440    -2.7480     7.4700 ha         1 UMI       0.113000
     48 H11        -11.3930    -2.6350     4.9740 ha         1 UMI       0.106000
     49 H12        -12.0220    -0.4970     3.8200 ha         1 UMI       0.109000
     50 H13        -17.0930    -0.8240     3.0290 hc         1 UMI       0.054700
     51 H14        -17.3280     0.5400     1.9890 hc         1 UMI       0.054700
     52 H15        -18.7630    -1.3820     4.8020 ha         1 UMI       0.114000
     53 H16        -21.1200    -1.1750     5.5470 ha         1 UMI       0.123000
     54 H17        -22.5550     0.6490     4.6870 ha         1 UMI       0.133000
     55 H18        -19.2500     2.0940     2.2890 ha         1 UMI       0.129000
     56 H19        -15.6110     1.1680     5.9200 h1         1 UMI       0.046700
     57 H20        -17.3370     0.8130     5.8280 h1         1 UMI       0.046700
     58 H21        -16.0580     0.1370     8.0100 ha         1 UMI       0.130000
     59 H22        -14.9800    -3.2400     5.5880 ha         1 UMI       0.115000
     60 H23        -13.5530    -2.7620    10.8850 h1         1 UMI       0.040700
     61 H24        -14.7070    -4.0840    10.6560 h1         1 UMI       0.040700
     62 H28        -15.9540    -1.3810     4.6680 hn         1 UMI       0.475000
     63 H30        -12.4990    -4.7750    10.6150 ho         1 UMI       0.441000
     64 H27        -12.6950     1.9570     8.5720 hn         1 UMI       0.360000
     65 H29        -16.7480    -1.3360    11.2280 ho         1 UMI       0.455000
     66 H31        -14.9110     0.8410    11.0560 ho         1 UMI       0.455000
     67 C8         -12.9210     2.4410     3.9550 c3         1 UMI       0.254000
     68 H2         -13.2020     3.6670     6.6920 h4         1 UMI       0.208000
     69 H25        -12.2750     1.8760     3.2690 h1         1 UMI       0.055700
     70 H26        -12.5660     3.4800     3.9320 h1         1 UMI       0.055700
@<TRIPOS>BOND
     1     1    11 ar  
     2     1    26 ar  
     3     1    39 1   
     4     2    28 2   
     5     2    32 1   
     6     2    68 1   
     7     3     5 1   
     8     3     8 1   
     9     3    14 1   
    10     3    23 1   
    11     4     7 ar  
    12     4     9 ar  
    13     4    32 1   
    14     5     6 1   
    15     5    40 1   
    16     5    41 1   
    17     6    34 1   
    18     6    42 1   
    19     6    43 1   
    20     7    13 ar  
    21     7    28 1   
    22     8    34 1   
    23     8    44 1   
    24     8    45 1   
    25     9    10 ar  
    26     9    46 1   
    27    10    12 ar  
    28    10    47 1   
    29    11    22 ar  
    30    11    27 1   
    31    12    13 ar  
    32    12    48 1   
    33    13    49 1   
    34    14    15 1   
    35    14    50 1   
    36    14    51 1   
    37    15    16 ar  
    38    15    20 ar  
    39    16    17 ar  
    40    16    52 1   
    41    17    18 ar  
    42    17    53 1   
    43    18    19 ar  
    44    18    54 1   
    45    19    20 ar  
    46    19    21 1   
    47    20    55 1   
    48    21    29 1   
    49    21    30 1   
    50    21    31 1   
    51    22    24 ar  
    52    22    35 1   
    53    23    33 1   
    54    23    56 1   
    55    23    57 1   
    56    24    25 ar  
    57    24    58 1   
    58    25    26 ar  
    59    25    33 1   
    60    26    59 1   
    61    27    38 1   
    62    27    60 1   
    63    27    61 1   
    64    28    67 1   
    65    32    64 1   
    66    33    62 1   
    67    34    67 1   
    68    35    36 1   
    69    35    37 1   
    70    36    65 1   
    71    37    66 1   
    72    38    63 1   
    73    67    69 1   
    74    67    70 1   
@<TRIPOS>SUBSTRUCTURE
     1 UMI         1 TEMP              0 ****  ****    0 ROOT
