@<TRIPOS>MOLECULE
UMJ
   36    37     1     0     0
SMALL
No Charge or Current Charge


@<TRIPOS>ATOM
      1 C2         -33.1820     3.8260    18.2860 ca         1 UMJ      -0.118500
      2 C3         -34.4700     3.5450    18.7700 ca         1 UMJ      -0.128000
      3 C5         -34.8140     1.9810    16.9370 ca         1 UMJ      -0.092500
      4 C7         -30.3250     3.0590    13.4600 cc         1 UMJ       0.233300
      5 C9         -32.5460     3.3570    13.4020 cd         1 UMJ      -0.157600
      6 C10        -33.9090     3.8610    13.0510 c          1 UMJ       0.727600
      7 C11        -28.8370     3.2450    13.1480 c3         1 UMJ      -0.064300
      8 C12        -28.2380     1.9030    12.6450 c3         1 UMJ      -0.076433
      9 C13        -28.5940     4.3220    12.0540 c3         1 UMJ      -0.076433
     10 O1         -34.8860     3.3520    13.5780 o          1 UMJ      -0.710500
     11 O          -34.0000     4.7640    12.2300 o          1 UMJ      -0.710500
     12 C8         -31.3660     3.8030    12.8750 cc         1 UMJ      -0.237000
     13 C14        -28.0910     3.6860    14.4360 c3         1 UMJ      -0.076433
     14 N1         -30.7750     2.1700    14.3280 nd         1 UMJ      -0.593800
     15 N          -32.1560     2.3550    14.3030 na         1 UMJ       0.130800
     16 C          -33.5250     2.2610    16.4380 ca         1 UMJ      -0.062300
     17 C4         -35.2850     2.6220    18.0960 ca         1 UMJ      -0.118500
     18 C1         -32.7100     3.1860    17.1270 ca         1 UMJ      -0.092500
     19 H1         -32.5480     4.5380    18.8090 ha         1 UMJ       0.097500
     20 H2         -34.8340     4.0400    19.6680 ha         1 UMJ       0.094000
     21 H3         -35.4550     1.2670    16.4230 ha         1 UMJ       0.118500
     22 H4         -28.3250     1.1190    13.4070 hc         1 UMJ       0.028700
     23 H5         -28.7620     1.5580    11.7450 hc         1 UMJ       0.028700
     24 H6         -27.1750     2.0130    12.3980 hc         1 UMJ       0.028700
     25 H7         -28.9690     5.3020    12.3740 hc         1 UMJ       0.028700
     26 H8         -27.5230     4.4300    11.8400 hc         1 UMJ       0.028700
     27 H9         -29.0940     4.0510    11.1160 hc         1 UMJ       0.028700
     28 H11        -31.2530     4.5870    12.1350 ha         1 UMJ       0.142000
     29 H12        -28.5060     4.6250    14.8220 hc         1 UMJ       0.028700
     30 H13        -28.1820     2.9290    15.2250 hc         1 UMJ       0.028700
     31 H14        -27.0230     3.8400    14.2410 hc         1 UMJ       0.028700
     32 H15        -33.8830     1.1960    14.5880 h1         1 UMJ       0.079200
     33 H16        -32.4720     0.6500    15.4870 h1         1 UMJ       0.079200
     34 H17        -36.2820     2.4010    18.4710 ha         1 UMJ       0.097500
     35 H18        -31.7070     3.4100    16.7700 ha         1 UMJ       0.118500
     36 C6         -33.0280     1.5440    15.1800 c3         1 UMJ       0.140900
@<TRIPOS>BOND
     1     1     2 ar  
     2     1    18 ar  
     3     1    19 1   
     4     2    17 ar  
     5     2    20 1   
     6     3    16 ar  
     7     3    17 ar  
     8     3    21 1   
     9     4     7 1   
    10     4    12 1   
    11     4    14 2   
    12     5     6 1   
    13     5    12 2   
    14     5    15 1   
    15     6    10 1   
    16     6    11 1   
    17     7     8 1   
    18     7     9 1   
    19     7    13 1   
    20     8    22 1   
    21     8    23 1   
    22     8    24 1   
    23     9    25 1   
    24     9    26 1   
    25     9    27 1   
    26    12    28 1   
    27    13    29 1   
    28    13    30 1   
    29    13    31 1   
    30    14    15 1   
    31    15    36 1   
    32    16    18 ar  
    33    16    36 1   
    34    17    34 1   
    35    18    35 1   
    36    32    36 1   
    37    33    36 1   
@<TRIPOS>SUBSTRUCTURE
     1 UMJ         1 TEMP              0 ****  ****    0 ROOT
