@<TRIPOS>MOLECULE
UMJ
   36    37     1     0     0
SMALL
abcg2


@<TRIPOS>ATOM
      1 C2         -33.1760     4.0740    17.9330 ca         1 UMJ      -0.118500
      2 C3         -34.2160     3.5640    18.7040 ca         1 UMJ      -0.128000
      3 C5         -34.5320     1.8070    17.0840 ca         1 UMJ      -0.092500
      4 C7         -30.3860     3.1200    13.4230 cc         1 UMJ       0.233300
      5 C9         -32.5990     3.3910    13.3070 cd         1 UMJ      -0.157600
      6 C10        -34.0020     3.8500    12.9850 c          1 UMJ       0.727600
      7 C11        -28.8830     3.2120    13.2610 c3         1 UMJ      -0.064300
      8 C12        -28.3430     1.8840    12.7040 c3         1 UMJ      -0.076433
      9 C13        -28.5240     4.3470    12.2940 c3         1 UMJ      -0.076433
     10 O1         -34.9600     3.1540    13.4030 o          1 UMJ      -0.710500
     11 O          -34.0800     4.9050    12.3080 o          1 UMJ      -0.710500
     12 C8         -31.3980     3.8860    12.8200 cc         1 UMJ      -0.237000
     13 C14        -28.2360     3.4910    14.6300 c3         1 UMJ      -0.076433
     14 N1         -30.9280     2.2080    14.2370 nd         1 UMJ      -0.593800
     15 N          -32.2650     2.3730    14.1490 na         1 UMJ       0.130800
     16 C          -33.4880     2.3110    16.3080 ca         1 UMJ      -0.062300
     17 C4         -34.8930     2.4260    18.2750 ca         1 UMJ      -0.118500
     18 C1         -32.8140     3.4500    16.7420 ca         1 UMJ      -0.092500
     19 H1         -32.6460     4.9610    18.2560 ha         1 UMJ       0.097500
     20 H2         -34.4990     4.0520    19.6280 ha         1 UMJ       0.094000
     21 H3         -35.0690     0.9270    16.7480 ha         1 UMJ       0.118500
     22 H4         -28.5730     1.0580    13.3780 hc         1 UMJ       0.028700
     23 H5         -28.7860     1.6640    11.7300 hc         1 UMJ       0.028700
     24 H6         -27.2580     1.9390    12.5820 hc         1 UMJ       0.028700
     25 H7         -28.8860     5.3100    12.6610 hc         1 UMJ       0.028700
     26 H8         -27.4400     4.4110    12.1870 hc         1 UMJ       0.028700
     27 H9         -28.9530     4.1750    11.3050 hc         1 UMJ       0.028700
     28 H11        -31.2940     4.6910    12.1150 ha         1 UMJ       0.142000
     29 H12        -28.5970     4.4350    15.0430 hc         1 UMJ       0.028700
     30 H13        -28.4710     2.6960    15.3390 hc         1 UMJ       0.028700
     31 H14        -27.1500     3.5530    14.5280 hc         1 UMJ       0.028700
     32 H15        -34.0120     1.3170    14.4890 h1         1 UMJ       0.079200
     33 H16        -32.5490     0.6860    15.2650 h1         1 UMJ       0.079200
     34 H17        -35.7080     2.0240    18.8640 ha         1 UMJ       0.097500
     35 H18        -32.0050     3.8560    16.1490 ha         1 UMJ       0.118500
     36 C6         -33.1110     1.5910    15.0300 c3         1 UMJ       0.140900
@<TRIPOS>BOND
     1     1     2 ar  
     2     1    18 ar  
     3     1    19 1   
     4     2    17 ar  
     5     2    20 1   
     6     3    16 ar  
     7     3    17 ar  
     8     3    21 1   
     9     4     7 1   
    10     4    12 1   
    11     4    14 2   
    12     5     6 1   
    13     5    12 2   
    14     5    15 1   
    15     6    10 1   
    16     6    11 1   
    17     7     8 1   
    18     7     9 1   
    19     7    13 1   
    20     8    22 1   
    21     8    23 1   
    22     8    24 1   
    23     9    25 1   
    24     9    26 1   
    25     9    27 1   
    26    12    28 1   
    27    13    29 1   
    28    13    30 1   
    29    13    31 1   
    30    14    15 1   
    31    15    36 1   
    32    16    18 ar  
    33    16    36 1   
    34    17    34 1   
    35    18    35 1   
    36    32    36 1   
    37    33    36 1   
@<TRIPOS>SUBSTRUCTURE
     1 UMJ         1 TEMP              0 ****  ****    0 ROOT
