@<TRIPOS>MOLECULE
UMK
   28    29     1     0     0
SMALL
abcg2


@<TRIPOS>ATOM
      1 BR          -3.8880    -0.2100     0.0020 br         1 UMK      -0.099100
      2 C8          -2.0070    -0.0240    -0.0480 ca         1 UMK      -0.015900
      3 C7          -1.4450     1.0960    -0.6350 ca         1 UMK      -0.085500
      4 C6          -0.0610     1.2240    -0.6690 ca         1 UMK      -0.101500
      5 C9          -1.2060    -1.0130     0.5020 ca         1 UMK      -0.085500
      6 C10          0.1720    -0.8650     0.4620 ca         1 UMK      -0.101500
      7 C5           0.7700     0.2540    -0.1180 ca         1 UMK      -0.098300
      8 C            2.2870     0.3850    -0.1650 c6         1 UMK       0.233300
      9 O            2.6710     1.6110    -0.7520 oh         1 UMK      -0.652000
     10 C4           2.8740    -0.7170    -1.0560 c6         1 UMK      -0.122400
     11 C3           4.4010    -0.7280    -1.0130 c6         1 UMK       0.153300
     12 N            4.9520    -0.8090     0.3300 n7         1 UMK      -0.844400
     13 C2           4.4180     0.2260     1.1980 c6         1 UMK       0.153300
     14 C1           2.8910     0.2660     1.2440 c6         1 UMK      -0.122400
     15 H7          -2.0620     1.8710    -1.0690 ha         1 UMK       0.129500
     16 H9          -1.6370    -1.8940     0.9580 ha         1 UMK       0.129500
     17 H6           0.3580     2.1010    -1.1410 ha         1 UMK       0.120000
     18 H10          0.7780    -1.6510     0.8940 ha         1 UMK       0.120000
     19 H            2.5220     2.3220    -0.1180 ho         1 UMK       0.445000
     20 H41C         2.4960    -1.6850    -0.7170 hc         1 UMK       0.052700
     21 H42C         2.5220    -0.5850    -2.0840 hc         1 UMK       0.052700
     22 H11C         2.5470     1.0990     1.8660 hc         1 UMK       0.052700
     23 H12C         2.5280    -0.6460     1.7260 hc         1 UMK       0.052700
     24 H31C         4.7740    -1.5740    -1.5940 h1         1 UMK       0.057950
     25 H32C         4.7930     0.1730    -1.4920 h1         1 UMK       0.057950
     26 HA           4.7260    -1.7160     0.7230 hn         1 UMK       0.400000
     27 H21C         4.8060     0.0720     2.2070 h1         1 UMK       0.057950
     28 H22C         4.8080     1.1930     0.8650 h1         1 UMK       0.057950
@<TRIPOS>BOND
     1     1     2 1   
     2     2     3 ar  
     3     2     5 ar  
     4     3     4 ar  
     5     3    15 1   
     6     4     7 ar  
     7     4    17 1   
     8     5     6 ar  
     9     5    16 1   
    10     6     7 ar  
    11     6    18 1   
    12     7     8 1   
    13     8     9 1   
    14     8    10 1   
    15     8    14 1   
    16     9    19 1   
    17    10    11 1   
    18    10    20 1   
    19    10    21 1   
    20    11    12 1   
    21    11    24 1   
    22    11    25 1   
    23    12    13 1   
    24    12    26 1   
    25    13    14 1   
    26    13    27 1   
    27    13    28 1   
    28    14    22 1   
    29    14    23 1   
@<TRIPOS>SUBSTRUCTURE
     1 UMK         1 TEMP              0 ****  ****    0 ROOT
