@<TRIPOS>MOLECULE
UMK
   28    29     1     0     0
SMALL
No Charge or Current Charge


@<TRIPOS>ATOM
      1 Br          -3.9620    -0.2060     0.0160 br         1 UMK      -0.099100
      2 C8          -2.0600    -0.0170    -0.0430 ca         1 UMK      -0.015900
      3 C7          -1.4850     1.1030    -0.6590 ca         1 UMK      -0.085500
      4 C6          -0.0860     1.2430    -0.7050 ca         1 UMK      -0.101500
      5 C9          -1.2400    -1.0030     0.5230 ca         1 UMK      -0.085500
      6 C10          0.1590    -0.8650     0.4790 ca         1 UMK      -0.101500
      7 C5           0.7630     0.2650    -0.1250 ca         1 UMK      -0.098300
      8 C            2.3140     0.3870    -0.1670 c6         1 UMK       0.233300
      9 O            2.6930     1.6610    -0.7000 oh         1 UMK      -0.652000
     10 C4           2.9130    -0.7240    -1.0740 c6         1 UMK      -0.122400
     11 C3           4.4610    -0.7390    -1.0420 c6         1 UMK       0.153300
     12 N            4.9620    -0.8720     0.3480 n7         1 UMK      -0.844400
     13 C2           4.4820     0.2240     1.2230 c6         1 UMK       0.153300
     14 C1           2.9340     0.2630     1.2590 c6         1 UMK      -0.122400
     15 H7          -2.1210     1.8630    -1.1060 ha         1 UMK       0.129500
     16 H9          -1.6840    -1.8770     0.9930 ha         1 UMK       0.129500
     17 H6           0.3200     2.1190    -1.2040 ha         1 UMK       0.120000
     18 H10          0.7690    -1.6520     0.9130 ha         1 UMK       0.120000
     19 H            2.3150     2.3320    -0.0940 ho         1 UMK       0.445000
     20 H41C         2.5430    -1.7080    -0.7590 hc         1 UMK       0.052700
     21 H42C         2.5680    -0.5870    -2.1080 hc         1 UMK       0.052700
     22 H11C         2.6000     1.0980     1.8900 hc         1 UMK       0.052700
     23 H12C         2.5810    -0.6490     1.7560 hc         1 UMK       0.052700
     24 H31C         4.8330    -1.5760    -1.6520 h1         1 UMK       0.057950
     25 H32C         4.8500     0.1890    -1.4890 h1         1 UMK       0.057950
     26 HA           4.6260    -1.7640     0.7300 hn         1 UMK       0.400000
     27 H21C         4.8690     0.0800     2.2440 h1         1 UMK       0.057950
     28 H22C         4.8710     1.1870     0.8590 h1         1 UMK       0.057950
@<TRIPOS>BOND
     1     1     2 1   
     2     2     3 ar  
     3     2     5 ar  
     4     3     4 ar  
     5     3    15 1   
     6     4     7 ar  
     7     4    17 1   
     8     5     6 ar  
     9     5    16 1   
    10     6     7 ar  
    11     6    18 1   
    12     7     8 1   
    13     8     9 1   
    14     8    10 1   
    15     8    14 1   
    16     9    19 1   
    17    10    11 1   
    18    10    20 1   
    19    10    21 1   
    20    11    12 1   
    21    11    24 1   
    22    11    25 1   
    23    12    13 1   
    24    12    26 1   
    25    13    14 1   
    26    13    27 1   
    27    13    28 1   
    28    14    22 1   
    29    14    23 1   
@<TRIPOS>SUBSTRUCTURE
     1 UMK         1 TEMP              0 ****  ****    0 ROOT
