@<TRIPOS>MOLECULE
UML
  118   120     1     0     0
SMALL
abcg2


@<TRIPOS>ATOM
      1 N1           5.9710    -2.6350    -0.5650 n          1 UML      -0.311000
      2 C2           5.3940    -1.4910    -1.0960 c          1 UML       0.621000
      3 N3           4.4080    -1.7160    -2.0190 ns         1 UML      -0.470500
      4 C4           3.9020    -2.9290    -2.4490 c          1 UML       0.597200
      5 C5           4.5200    -4.0680    -1.8150 cc         1 UML      -0.406200
      6 C6           5.5050    -3.8710    -0.9250 cd         1 UML       0.022600
      7 O2           5.7350    -0.3700    -0.7890 o          1 UML      -0.509000
      8 O4           3.0210    -2.9700    -3.2900 o          1 UML      -0.568000
      9 C1'A         7.0380    -2.5550     0.4210 c5         1 UML       0.355700
     10 C2'A         8.2420    -1.6840     0.0550 c5         1 UML       0.068300
     11 O8           9.1190    -2.4240    -0.7500 oh         1 UML      -0.731000
     12 C3'A         8.7890    -1.3570     1.4460 c5         1 UML       0.100300
     13 C4'A         7.5170    -1.2440     2.2810 c5         1 UML       0.158300
     14 O4'A         6.5480    -2.0790     1.6370 os         1 UML      -0.401000
     15 O3'A         9.5510    -2.4290     1.9440 oh         1 UML      -0.721000
     16 C5'A         6.9840     0.1670     2.4380 c3         1 UML       0.235600
     17 O5'A         6.0050     0.1420     3.4580 os         1 UML      -0.585400
     18 PA           4.8870     1.3320     3.5880 p5         1 UML       1.470800
     19 O1A          5.4320     2.6200     3.0630 o          1 UML      -0.842000
     20 O2A          4.3370     1.2120     4.9720 o          1 UML      -0.842000
     21 O3A          3.7970     0.7020     2.5200 os         1 UML      -0.701800
     22 PB           2.3870     1.3660     2.0730 p5         1 UML       1.483800
     23 O1B          2.0470     2.5840     2.8680 o          1 UML      -0.841000
     24 O2B          1.4090     0.2230     1.9670 o          1 UML      -0.841000
     25 C1           2.1460     2.7350    -0.2370 c6         1 UML       0.439300
     26 C9           0.9480     2.0830    -0.9510 c6         1 UML       0.019700
     27 C3           1.4720     0.9670    -1.8500 c6         1 UML       0.143300
     28 C10          2.5460     1.5220    -2.7840 c6         1 UML       0.141300
     29 C11          3.6280     2.3010    -2.0340 c6         1 UML       0.183300
     30 C12          4.5070     3.0650    -3.0040 c3         1 UML       0.166600
     31 C7          -1.0520     2.3590     0.4380 c          1 UML       0.608100
     32 C8          -1.7250     1.8130     1.6720 c3         1 UML      -0.190100
     33 C18         -0.4170    -0.4990    -2.1690 c3         1 UML       0.109300
     34 C19         -1.7590     0.2020    -1.9590 c          1 UML       0.594100
     35 C20         -0.5880    -1.6510    -3.1520 c3         1 UML      -0.101100
     36 O1           2.8350     1.8080     0.5520 os         1 UML      -0.631400
     37 O3           0.5050     0.4100    -2.7080 os         1 UML      -0.476000
     38 O9           3.1800     0.4750    -3.4930 oh         1 UML      -0.760000
     39 O5           3.0310     3.2560    -1.1730 os         1 UML      -0.452000
     40 O6           5.5520     3.6790    -2.2900 oh         1 UML      -0.679000
     41 O7          -1.3980     3.4060    -0.0900 o          1 UML      -0.652100
     42 O18         -2.0890     1.1700    -2.6240 o          1 UML      -0.612100
     43 N2          -0.0190     1.6040     0.0020 ns         1 UML      -0.531900
     44 N4          -2.5530    -0.3740    -1.0430 ns         1 UML      -0.489900
     45 C21         -3.9140     0.0480    -0.8090 c3         1 UML       0.024700
     46 C22         -4.3140    -0.3780     0.5980 c          1 UML       0.585100
     47 O19         -3.9650    -1.4670     1.0420 o          1 UML      -0.654100
     48 C23         -4.8880    -0.5740    -1.8120 c3         1 UML      -0.104100
     49 N5          -5.1010     0.4880     1.2350 ns         1 UML      -0.451900
     50 C24         -5.6480     0.3050     2.5600 c3         1 UML      -0.049300
     51 C28         -5.4980     1.6080     3.3840 c          1 UML       0.719000
     52 O23         -5.2410     2.6510     2.7530 o          1 UML      -0.728500
     53 C25         -7.1300    -0.0800     2.5010 c3         1 UML      -0.061400
     54 C26         -7.4000    -1.3590     1.7190 c3         1 UML      -0.158400
     55 C27         -8.8850    -1.6420     1.6100 c          1 UML       0.605100
     56 O20         -9.6460    -1.4860     2.5580 o          1 UML      -0.636100
     57 O22         -5.6940     1.4920     4.6060 o          1 UML      -0.728500
     58 N30         -9.3030    -2.0340     0.3990 ns         1 UML      -0.479900
     59 C32        -10.6610    -2.4390     0.1250 c3         1 UML      -0.026300
     60 C31        -11.0320    -3.8030     0.7630 c          1 UML       0.717000
     61 O38        -10.1110    -4.5060     1.2120 o          1 UML      -0.736000
     62 C33        -10.8860    -2.4810    -1.3870 c3         1 UML      -0.071400
     63 C34        -10.6620    -1.1470    -2.0910 c3         1 UML      -0.080400
     64 C35        -10.9500    -1.2220    -3.5840 c3         1 UML      -0.076400
     65 C36        -10.6780     0.0900    -4.3030 c3         1 UML       0.139800
     66 N39        -10.9670    -0.0210    -5.7260 n8         1 UML      -0.998200
     67 O37        -12.2490    -4.0760     0.7410 o          1 UML      -0.736000
     68 H3           4.0180    -0.8770    -2.4600 hn         1 UML       0.378500
     69 HE           4.1950    -5.0660    -2.0620 ha         1 UML       0.200000
     70 H6           5.9910    -4.7050    -0.4400 h4         1 UML       0.187000
     71 H1'A         7.3930    -3.5880     0.5260 h2         1 UML       0.045700
     72 H2'A         7.9320    -0.7590    -0.4330 h1         1 UML       0.101700
     73 HD           9.6620    -1.8140    -1.2580 ho         1 UML       0.500000
     74 H3'A         9.3660    -0.4230     1.4470 h1         1 UML       0.053700
     75 H4'A         7.7130    -1.6460     3.2810 h1         1 UML       0.088700
     76 HC          10.1150    -2.7410     1.2250 ho         1 UML       0.493000
     77 H5'1         7.8110     0.8260     2.7250 h1         1 UML       0.030200
     78 H5'2         6.5810     0.5260     1.4880 h1         1 UML       0.030200
     79 H1           1.7980     3.5850     0.3630 h2         1 UML       0.096700
     80 H2           0.4690     2.8440    -1.5700 h1         1 UML       0.082700
     81 HA           0.3080     0.8770     0.6450 hn         1 UML       0.374500
     82 H8'1        -2.7410     2.1870     1.7700 hc         1 UML       0.077700
     83 H8'2        -1.7400     0.7240     1.6870 hc         1 UML       0.077700
     84 H8'3        -1.1570     2.1410     2.5460 hc         1 UML       0.077700
     85 H7           1.9180     0.1800    -1.2220 h1         1 UML       0.080700
     86 H18         -0.0590    -0.9050    -1.2140 h1         1 UML       0.079700
     87 H201         0.3670    -2.1540    -3.3000 hc         1 UML       0.038367
     88 H202        -1.3000    -2.3850    -2.7730 hc         1 UML       0.038367
     89 H203        -0.9480    -1.2940    -4.1170 hc         1 UML       0.038367
     90 H4           2.0500     2.2060    -3.4880 h1         1 UML       0.034700
     91 H5           4.2480     1.6010    -1.4600 h1         1 UML       0.106700
     92 H6'1         4.8890     2.3640    -3.7540 h1         1 UML       0.005200
     93 H6'2         3.8880     3.8010    -3.5370 h1         1 UML       0.005200
     94 H9           6.0990     4.1560    -2.9200 ho         1 UML       0.463000
     95 HB           2.5030    -0.0130    -3.9780 ho         1 UML       0.521000
     96 H10         -2.2370    -1.1970    -0.5520 hn         1 UML       0.336500
     97 H21         -3.9560     1.1350    -0.8990 h1         1 UML       0.089700
     98 H231        -5.9110    -0.2540    -1.6110 hc         1 UML       0.033700
     99 H232        -4.6340    -0.2690    -2.8260 hc         1 UML       0.033700
    100 H233        -4.8510    -1.6620    -1.7580 hc         1 UML       0.033700
    101 H11         -5.2100     1.4170     0.8560 hn         1 UML       0.330500
    102 H24         -5.0900    -0.4940     3.0520 h1         1 UML       0.071700
    103 H251        -7.4980    -0.1870     3.5210 hc         1 UML       0.050200
    104 H252        -7.6870     0.7480     2.0480 hc         1 UML       0.050200
    105 H261        -6.9590    -1.2920     0.7220 hc         1 UML       0.051200
    106 H262        -6.9190    -2.2080     2.2150 hc         1 UML       0.051200
    107 H30         -8.6030    -2.2420    -0.2940 hn         1 UML       0.291500
    108 H32        -11.3300    -1.6810     0.5440 h1         1 UML       0.051700
    109 H331       -10.2370    -3.2440    -1.8320 hc         1 UML       0.037700
    110 H332       -11.9110    -2.8140    -1.5590 hc         1 UML       0.037700
    111 H341       -11.2970    -0.3830    -1.6300 hc         1 UML       0.039200
    112 H342        -9.6310    -0.8090    -1.9440 hc         1 UML       0.039200
    113 H351       -10.3430    -2.0110    -4.0400 hc         1 UML       0.033700
    114 H352       -11.9960    -1.5120    -3.7380 hc         1 UML       0.033700
    115 H361       -11.2390     0.8930    -3.8020 h1         1 UML       0.030700
    116 H362        -9.6200     0.3440    -4.1890 h1         1 UML       0.030700
    117 H391       -11.9660    -0.1320    -5.8530 hn         1 UML       0.375000
    118 H392       -10.7310     0.8490    -6.1870 hn         1 UML       0.375000
@<TRIPOS>BOND
     1     1     2 1   
     2     1     6 1   
     3     1     9 1   
     4     2     3 1   
     5     2     7 2   
     6     3     4 1   
     7     3    68 1   
     8     4     5 1   
     9     4     8 2   
    10     5     6 2   
    11     5    69 1   
    12     6    70 1   
    13     9    10 1   
    14     9    14 1   
    15     9    71 1   
    16    10    11 1   
    17    10    12 1   
    18    10    72 1   
    19    11    73 1   
    20    12    13 1   
    21    12    15 1   
    22    12    74 1   
    23    13    14 1   
    24    13    16 1   
    25    13    75 1   
    26    15    76 1   
    27    16    17 1   
    28    16    77 1   
    29    16    78 1   
    30    17    18 1   
    31    18    19 1   
    32    18    20 1   
    33    18    21 1   
    34    21    22 1   
    35    22    23 1   
    36    22    24 1   
    37    22    36 1   
    38    25    26 1   
    39    25    36 1   
    40    25    39 1   
    41    25    79 1   
    42    26    27 1   
    43    26    43 1   
    44    26    80 1   
    45    27    28 1   
    46    27    37 1   
    47    27    85 1   
    48    28    29 1   
    49    28    38 1   
    50    28    90 1   
    51    29    30 1   
    52    29    39 1   
    53    29    91 1   
    54    30    40 1   
    55    30    92 1   
    56    30    93 1   
    57    31    32 1   
    58    31    41 2   
    59    31    43 1   
    60    32    82 1   
    61    32    83 1   
    62    32    84 1   
    63    33    34 1   
    64    33    35 1   
    65    33    37 1   
    66    33    86 1   
    67    34    42 2   
    68    34    44 1   
    69    35    87 1   
    70    35    88 1   
    71    35    89 1   
    72    38    95 1   
    73    40    94 1   
    74    43    81 1   
    75    44    45 1   
    76    44    96 1   
    77    45    46 1   
    78    45    48 1   
    79    45    97 1   
    80    46    47 2   
    81    46    49 1   
    82    48    98 1   
    83    48    99 1   
    84    48   100 1   
    85    49    50 1   
    86    49   101 1   
    87    50    51 1   
    88    50    53 1   
    89    50   102 1   
    90    51    52 1   
    91    51    57 1   
    92    53    54 1   
    93    53   103 1   
    94    53   104 1   
    95    54    55 1   
    96    54   105 1   
    97    54   106 1   
    98    55    56 2   
    99    55    58 1   
   100    58    59 1   
   101    58   107 1   
   102    59    60 1   
   103    59    62 1   
   104    59   108 1   
   105    60    61 1   
   106    60    67 1   
   107    62    63 1   
   108    62   109 1   
   109    62   110 1   
   110    63    64 1   
   111    63   111 1   
   112    63   112 1   
   113    64    65 1   
   114    64   113 1   
   115    64   114 1   
   116    65    66 1   
   117    65   115 1   
   118    65   116 1   
   119    66   117 1   
   120    66   118 1   
@<TRIPOS>SUBSTRUCTURE
     1 UML         1 TEMP              0 ****  ****    0 ROOT
