@<TRIPOS>MOLECULE
UML
  118   120     1     0     0
SMALL
No Charge or Current Charge


@<TRIPOS>ATOM
      1 N1           4.4360    -2.8760    -0.8990 n          1 UML      -0.311000
      2 C2           4.8350    -1.6900    -1.5550 c          1 UML       0.621000
      3 N3           4.3270    -1.5020    -2.8010 ns         1 UML      -0.470500
      4 C4           3.5220    -2.3210    -3.5160 c          1 UML       0.597200
      5 C5           3.1690    -3.5470    -2.8100 cc         1 UML      -0.406200
      6 C6           3.6130    -3.8020    -1.5350 cd         1 UML       0.022600
      7 O2           5.6100    -0.8750    -1.0860 o          1 UML      -0.509000
      8 O4           3.1400    -2.0420    -4.6370 o          1 UML      -0.568000
      9 C1'A         4.8180    -3.1190     0.5180 c5         1 UML       0.355700
     10 C2'A         6.2970    -3.6170     0.5580 c5         1 UML       0.068300
     11 O8           6.4970    -4.9860     0.1310 oh         1 UML      -0.731000
     12 C3'A         6.5320    -3.4640     2.0860 c5         1 UML       0.100300
     13 C4'A         5.7890    -2.1050     2.3910 c5         1 UML       0.158300
     14 O4'A         4.7960    -1.9410     1.3380 os         1 UML      -0.401000
     15 O3'A         5.9550    -4.5880     2.7610 oh         1 UML      -0.721000
     16 C5'A         6.7340    -0.8640     2.4290 c3         1 UML       0.235600
     17 O5'A         6.4920    -0.1390     3.6450 os         1 UML      -0.585400
     18 PA           5.7920     1.3120     3.6090 p5         1 UML       1.470800
     19 O1A          6.5710     2.2160     2.7140 o          1 UML      -0.842000
     20 O2A          5.7020     1.8230     5.0100 o          1 UML      -0.842000
     21 O3A          4.3960     0.8330     3.0630 os         1 UML      -0.701800
     22 PB           3.4760     1.9870     2.5160 p5         1 UML       1.483800
     23 O1B          3.5580     3.2580     3.2890 o          1 UML      -0.841000
     24 O2B          2.0670     1.5030     2.4510 o          1 UML      -0.841000
     25 C1           3.7100     3.2940     0.2750 c6         1 UML       0.439300
     26 C9           2.3570     3.1290    -0.5110 c6         1 UML       0.019700
     27 C3           2.5300     1.9550    -1.5340 c6         1 UML       0.143300
     28 C10          3.7130     2.2890    -2.4870 c6         1 UML       0.141300
     29 C11          5.0070     2.5270    -1.6530 c6         1 UML       0.183300
     30 C12          6.2130     2.9560    -2.5550 c3         1 UML       0.166600
     31 C7          -0.0380     3.6350     0.2090 c          1 UML       0.608100
     32 C8          -1.0850     3.2760     1.2500 c3         1 UML      -0.190100
     33 C18          0.3130     0.8120    -1.7860 c3         1 UML       0.109300
     34 C19         -1.0750     1.0560    -2.4550 c          1 UML       0.594100
     35 C20          0.7820    -0.6470    -1.9950 c3         1 UML      -0.101100
     36 O1           4.0820     2.1400     1.0380 os         1 UML      -0.631400
     37 O3           1.3390     1.6930    -2.3290 os         1 UML      -0.476000
     38 O9           3.8600     1.2560    -3.4800 oh         1 UML      -0.760000
     39 O5           4.7710     3.5690    -0.6660 os         1 UML      -0.452000
     40 O6           7.4080     3.2770    -1.8190 oh         1 UML      -0.679000
     41 O7          -0.2550     4.4250    -0.6960 o          1 UML      -0.652100
     42 O18         -1.2180     1.4850    -3.5960 o          1 UML      -0.612100
     43 N2           1.1700     3.0040     0.3700 ns         1 UML      -0.531900
     44 N4          -2.1600     0.8310    -1.6300 ns         1 UML      -0.489900
     45 C21         -3.5760     1.0360    -2.0040 c3         1 UML       0.024700
     46 C22         -4.4490     1.2130    -0.7270 c          1 UML       0.585100
     47 O19         -4.0190     1.0180     0.4050 o          1 UML      -0.654100
     48 C23         -4.0820    -0.1280    -2.8890 c3         1 UML      -0.104100
     49 N5          -5.7490     1.6150    -0.9600 ns         1 UML      -0.451900
     50 C24         -6.7910     1.8170     0.0780 c3         1 UML      -0.049300
     51 C28         -7.6390     3.0850    -0.2460 c          1 UML       0.719000
     52 O23         -8.0430     3.2390    -1.3920 o          1 UML      -0.728500
     53 C25         -7.6940     0.5670     0.2470 c3         1 UML      -0.061400
     54 C26         -6.9440    -0.7140     0.6910 c3         1 UML      -0.158400
     55 C27         -7.9190    -1.8680     0.9470 c          1 UML       0.605100
     56 O20         -8.6230    -1.9240     1.9470 o          1 UML      -0.636100
     57 O22         -7.7850     3.9220     0.6330 o          1 UML      -0.728500
     58 N30         -7.9170    -2.8530    -0.0170 ns         1 UML      -0.479900
     59 C32         -8.7930    -4.0510    -0.0310 c3         1 UML      -0.026300
     60 C31         -7.9940    -5.3090    -0.5030 c          1 UML       0.717000
     61 O38         -7.3580    -5.2420    -1.5470 o          1 UML      -0.736000
     62 C33        -10.0640    -3.8340    -0.8960 c3         1 UML      -0.071400
     63 C34        -10.9920    -2.6980    -0.4020 c3         1 UML      -0.080400
     64 C35        -12.2850    -2.5670    -1.2370 c3         1 UML      -0.076400
     65 C36        -13.2040    -1.4310    -0.7430 c3         1 UML       0.139800
     66 N39        -14.4320    -1.3320    -1.5540 n8         1 UML      -0.998200
     67 O37         -7.9690    -6.2870     0.2330 o          1 UML      -0.736000
     68 H3           4.5480    -0.6140    -3.2330 hn         1 UML       0.378500
     69 HE           2.5250    -4.2340    -3.3470 ha         1 UML       0.200000
     70 H6           3.3700    -4.6900    -0.9530 h4         1 UML       0.187000
     71 H1'A         4.1330    -3.8700     0.9300 h2         1 UML       0.045700
     72 H2'A         6.9520    -2.9280     0.0030 h1         1 UML       0.101700
     73 HD           6.4580    -4.9990    -0.8560 ho         1 UML       0.500000
     74 H3'A         7.6050    -3.4010     2.3160 h1         1 UML       0.053700
     75 H4'A         5.2670    -2.1710     3.3550 h1         1 UML       0.088700
     76 HC           6.0420    -5.3160     2.0950 ho         1 UML       0.493000
     77 H5'1         7.7800    -1.1940     2.3990 h1         1 UML       0.030200
     78 H5'2         6.5600    -0.2410     1.5410 h1         1 UML       0.030200
     79 H1           3.6210     4.1670     0.9420 h2         1 UML       0.096700
     80 H2           2.2280     4.0510    -1.0950 h1         1 UML       0.082700
     81 HA           1.2440     2.3790     1.1780 hn         1 UML       0.374500
     82 H8'1        -2.0450     3.7740     1.0720 hc         1 UML       0.077700
     83 H8'2        -1.1930     2.1870     1.2930 hc         1 UML       0.077700
     84 H8'3        -0.6890     3.5090     2.2450 hc         1 UML       0.077700
     85 H7           2.7930     1.0430    -0.9790 h1         1 UML       0.080700
     86 H18          0.1790     0.9740    -0.7110 h1         1 UML       0.079700
     87 H201         1.7050    -0.8560    -1.4430 hc         1 UML       0.038367
     88 H202         0.0170    -1.3480    -1.6380 hc         1 UML       0.038367
     89 H203         0.9540    -0.8480    -3.0590 hc         1 UML       0.038367
     90 H4           3.4720     3.2340    -2.9960 h1         1 UML       0.034700
     91 H5           5.2870     1.6010    -1.1330 h1         1 UML       0.106700
     92 H6'1         6.4250     2.1410    -3.2590 h1         1 UML       0.005200
     93 H6'2         5.9030     3.8260    -3.1500 h1         1 UML       0.005200
     94 H9           8.0700     3.5890    -2.4740 ho         1 UML       0.463000
     95 HB           2.9480     1.1330    -3.8410 ho         1 UML       0.521000
     96 H10         -1.9670     0.5100    -0.6860 hn         1 UML       0.336500
     97 H21         -3.6550     1.9720    -2.5730 h1         1 UML       0.089700
     98 H231        -5.1190     0.0400    -3.2030 hc         1 UML       0.033700
     99 H232        -3.4690    -0.2270    -3.7920 hc         1 UML       0.033700
    100 H233        -4.0400    -1.0770    -2.3400 hc         1 UML       0.033700
    101 H11         -6.0080     1.7840    -1.9260 hn         1 UML       0.330500
    102 H24         -6.2930     2.0130     1.0360 h1         1 UML       0.071700
    103 H251        -8.4670     0.7990     0.9910 hc         1 UML       0.050200
    104 H252        -8.2190     0.3680    -0.6960 hc         1 UML       0.050200
    105 H261        -6.2350    -0.9960    -0.0950 hc         1 UML       0.051200
    106 H262        -6.4050    -0.4960     1.6210 hc         1 UML       0.051200
    107 H30         -7.2740    -2.7300    -0.7910 hn         1 UML       0.291500
    108 H32         -9.1150    -4.2540     0.9990 h1         1 UML       0.051700
    109 H331        -9.7650    -3.6300    -1.9310 hc         1 UML       0.037700
    110 H332       -10.6340    -4.7710    -0.9120 hc         1 UML       0.037700
    111 H341       -11.2580    -2.8810     0.6470 hc         1 UML       0.039200
    112 H342       -10.4530    -1.7440    -0.4360 hc         1 UML       0.039200
    113 H351       -12.0180    -2.3870    -2.2860 hc         1 UML       0.033700
    114 H352       -12.8330    -3.5180    -1.2020 hc         1 UML       0.033700
    115 H361       -13.4860    -1.6130     0.3040 h1         1 UML       0.030700
    116 H362       -12.6680    -0.4720    -0.7960 h1         1 UML       0.030700
    117 H391       -14.9710    -2.2000    -1.4480 hn         1 UML       0.375000
    118 H392       -15.0440    -0.6140    -1.1480 hn         1 UML       0.375000
@<TRIPOS>BOND
     1     1     2 1   
     2     1     6 1   
     3     1     9 1   
     4     2     3 1   
     5     2     7 2   
     6     3     4 1   
     7     3    68 1   
     8     4     5 1   
     9     4     8 2   
    10     5     6 2   
    11     5    69 1   
    12     6    70 1   
    13     9    10 1   
    14     9    14 1   
    15     9    71 1   
    16    10    11 1   
    17    10    12 1   
    18    10    72 1   
    19    11    73 1   
    20    12    13 1   
    21    12    15 1   
    22    12    74 1   
    23    13    14 1   
    24    13    16 1   
    25    13    75 1   
    26    15    76 1   
    27    16    17 1   
    28    16    77 1   
    29    16    78 1   
    30    17    18 1   
    31    18    19 1   
    32    18    20 1   
    33    18    21 1   
    34    21    22 1   
    35    22    23 1   
    36    22    24 1   
    37    22    36 1   
    38    25    26 1   
    39    25    36 1   
    40    25    39 1   
    41    25    79 1   
    42    26    27 1   
    43    26    43 1   
    44    26    80 1   
    45    27    28 1   
    46    27    37 1   
    47    27    85 1   
    48    28    29 1   
    49    28    38 1   
    50    28    90 1   
    51    29    30 1   
    52    29    39 1   
    53    29    91 1   
    54    30    40 1   
    55    30    92 1   
    56    30    93 1   
    57    31    32 1   
    58    31    41 2   
    59    31    43 1   
    60    32    82 1   
    61    32    83 1   
    62    32    84 1   
    63    33    34 1   
    64    33    35 1   
    65    33    37 1   
    66    33    86 1   
    67    34    42 2   
    68    34    44 1   
    69    35    87 1   
    70    35    88 1   
    71    35    89 1   
    72    38    95 1   
    73    40    94 1   
    74    43    81 1   
    75    44    45 1   
    76    44    96 1   
    77    45    46 1   
    78    45    48 1   
    79    45    97 1   
    80    46    47 2   
    81    46    49 1   
    82    48    98 1   
    83    48    99 1   
    84    48   100 1   
    85    49    50 1   
    86    49   101 1   
    87    50    51 1   
    88    50    53 1   
    89    50   102 1   
    90    51    52 1   
    91    51    57 1   
    92    53    54 1   
    93    53   103 1   
    94    53   104 1   
    95    54    55 1   
    96    54   105 1   
    97    54   106 1   
    98    55    56 2   
    99    55    58 1   
   100    58    59 1   
   101    58   107 1   
   102    59    60 1   
   103    59    62 1   
   104    59   108 1   
   105    60    61 1   
   106    60    67 1   
   107    62    63 1   
   108    62   109 1   
   109    62   110 1   
   110    63    64 1   
   111    63   111 1   
   112    63   112 1   
   113    64    65 1   
   114    64   113 1   
   115    64   114 1   
   116    65    66 1   
   117    65   115 1   
   118    65   116 1   
   119    66   117 1   
   120    66   118 1   
@<TRIPOS>SUBSTRUCTURE
     1 UML         1 TEMP              0 ****  ****    0 ROOT
