@<TRIPOS>MOLECULE
UMN
   69    74     1     0     0
SMALL
abcg2


@<TRIPOS>ATOM
      1 C2          -0.1470     7.0610    48.9930 c3         1 UMN       0.155600
      2 C3           0.1820     8.5570    49.0310 c5         1 UMN       0.182700
      3 C5           0.0080     9.2320    51.3880 c5         1 UMN      -0.036100
      4 C6          -1.1760     9.7270    50.6120 ca         1 UMN      -0.079300
      5 C7          -2.2730    10.4460    51.0640 ca         1 UMN      -0.101000
      6 C8          -3.2720    10.7930    50.1620 ca         1 UMN      -0.103000
      7 C10         -2.0840     9.6870    48.3750 ca         1 UMN      -0.078000
      8 C11         -1.0820     9.3560    49.2760 ca         1 UMN      -0.107300
      9 C15          2.3790     9.1550    45.9740 c3         1 UMN       0.026000
     10 C19          7.3180     9.9380    46.1270 ca         1 UMN      -0.111000
     11 C21          8.1810     7.9980    44.9380 cp         1 UMN      -0.168500
     12 C22          6.8870     7.5310    44.7240 ca         1 UMN      -0.004000
     13 C23          5.8370     8.2840    45.2130 ca         1 UMN      -0.164600
     14 C24          4.3840     8.0240    45.1200 c          1 UMN       0.592600
     15 C26          9.3600     7.2760    44.4140 cp         1 UMN       0.238500
     16 C28         11.3410     7.4110    43.2780 ca         1 UMN       0.392900
     17 C31         13.4750    10.2130    42.1620 c6         1 UMN      -0.132900
     18 C35         11.2570     9.8130    41.1030 c6         1 UMN      -0.132900
     19 C37         10.7240     5.3730    44.0280 ca         1 UMN       0.165900
     20 C38          9.5720     5.9110    44.5880 ca         1 UMN      -0.062000
     21 O1          -0.9610     6.7970    47.8800 oh         1 UMN      -0.660000
     22 C4           1.0210     8.8760    50.2910 c5         1 UMN      -0.084400
     23 C9          -3.1790    10.4170    48.8260 ca         1 UMN      -0.118000
     24 N12          0.8080     8.9930    47.7910 ns         1 UMN      -0.490900
     25 O14          2.7550     7.8400    47.9470 o          1 UMN      -0.596100
     26 N16          3.7830     9.0760    45.7330 n          1 UMN      -0.402800
     27 C17          4.7110    10.0190    46.3190 c5         1 UMN       0.142300
     28 C18          6.0370     9.4610    45.9140 ca         1 UMN      -0.064300
     29 C20          8.3810     9.2030    45.6230 ca         1 UMN      -0.046000
     30 N27         10.2540     8.0100    43.7660 nb         1 UMN      -0.254000
     31 N29         12.2610     8.1630    42.6530 nu         1 UMN      -0.914100
     32 C30         12.1080     9.5680    42.3490 c6         1 UMN       0.247500
     33 C32         13.3110    11.6740    41.7660 c6         1 UMN       0.157100
     34 O33         12.5240    11.8280    40.6080 os         1 UMN      -0.448000
     35 C34         11.2270    11.2980    40.7750 c6         1 UMN       0.157100
     36 N36         11.6020     6.0960    43.3710 nb         1 UMN      -0.240000
     37 CL39         8.5210     4.8890    45.5000 cl         1 UMN      -0.165000
     38 H42         -0.6440     6.8050    49.9380 h1         1 UMN       0.037200
     39 H41          0.7860     6.4870    48.9600 h1         1 UMN       0.037200
     40 H46         -0.2660     8.3520    51.9780 hc         1 UMN       0.055700
     41 H45          0.3980     9.9700    52.0900 hc         1 UMN       0.055700
     42 H47         -2.3480    10.7420    52.1030 ha         1 UMN       0.115000
     43 H48         -4.1290    11.3620    50.5000 ha         1 UMN       0.113000
     44 H50         -2.0260     9.3940    47.3340 ha         1 UMN       0.122000
     45 H52          2.0440    10.1900    45.8700 h1         1 UMN       0.074700
     46 H53          1.8500     8.5750    45.2130 h1         1 UMN       0.074700
     47 H56          7.4970    10.8580    46.6680 ha         1 UMN       0.122000
     48 H58          6.6990     6.6210    44.1700 ha         1 UMN       0.144000
     49 H61         14.0340     9.6830    41.3830 hc         1 UMN       0.059200
     50 H62         14.0600    10.1520    43.0830 hc         1 UMN       0.059200
     51 H67         10.2370     9.4560    41.2580 hc         1 UMN       0.059200
     52 H68         11.6770     9.2530    40.2610 hc         1 UMN       0.059200
     53 H69         10.9320     4.3120    44.1300 h4         1 UMN       0.036100
     54 H40         -1.2010     5.8660    47.8950 ho         1 UMN       0.447000
     55 H44          1.6780     8.0540    50.5720 hc         1 UMN       0.063700
     56 H43          1.6510     9.7410    50.0810 hc         1 UMN       0.063700
     57 H49         -3.9640    10.6910    48.1330 ha         1 UMN       0.114000
     58 H51          0.2980     9.6540    47.2250 hn         1 UMN       0.318500
     59 H54          4.6040    10.0620    47.4070 h1         1 UMN       0.064200
     60 H55          4.5480    11.0280    45.9310 h1         1 UMN       0.064200
     61 H57          9.3910     9.5610    45.7720 ha         1 UMN       0.127000
     62 H59         13.0170     7.6610    42.2130 hn         1 UMN       0.506000
     63 H60         11.6160    10.0430    43.2030 h1         1 UMN       0.077700
     64 H63         14.2840    12.1210    41.5540 h1         1 UMN       0.047450
     65 H64         12.8710    12.2320    42.6060 h1         1 UMN       0.047450
     66 H66         10.6930    11.8380    41.5720 h1         1 UMN       0.047450
     67 H65         10.6860    11.4760    39.8440 h1         1 UMN       0.047450
     68 C13          2.0070     8.5940    47.3480 c          1 UMN       0.577100
     69 O25          3.8280     7.0770    44.5950 o          1 UMN      -0.530000
@<TRIPOS>BOND
     1     1     2 1   
     2     1    21 1   
     3     1    38 1   
     4     1    39 1   
     5     2     8 1   
     6     2    22 1   
     7     2    24 1   
     8     3     4 1   
     9     3    22 1   
    10     3    40 1   
    11     3    41 1   
    12     4     5 ar  
    13     4     8 ar  
    14     5     6 ar  
    15     5    42 1   
    16     6    23 ar  
    17     6    43 1   
    18     7     8 ar  
    19     7    23 ar  
    20     7    44 1   
    21     9    26 1   
    22     9    45 1   
    23     9    46 1   
    24     9    68 1   
    25    10    28 ar  
    26    10    29 ar  
    27    10    47 1   
    28    11    12 ar  
    29    11    15 1   
    30    11    29 ar  
    31    12    13 ar  
    32    12    48 1   
    33    13    14 1   
    34    13    28 ar  
    35    14    26 1   
    36    14    69 2   
    37    15    20 ar  
    38    15    30 ar  
    39    16    30 ar  
    40    16    31 1   
    41    16    36 ar  
    42    17    32 1   
    43    17    33 1   
    44    17    49 1   
    45    17    50 1   
    46    18    32 1   
    47    18    35 1   
    48    18    51 1   
    49    18    52 1   
    50    19    20 ar  
    51    19    36 ar  
    52    19    53 1   
    53    20    37 1   
    54    21    54 1   
    55    22    55 1   
    56    22    56 1   
    57    23    57 1   
    58    24    58 1   
    59    24    68 1   
    60    25    68 2   
    61    26    27 1   
    62    27    28 1   
    63    27    59 1   
    64    27    60 1   
    65    29    61 1   
    66    31    32 1   
    67    31    62 1   
    68    32    63 1   
    69    33    34 1   
    70    33    64 1   
    71    33    65 1   
    72    34    35 1   
    73    35    66 1   
    74    35    67 1   
@<TRIPOS>SUBSTRUCTURE
     1 UMN         1 TEMP              0 ****  ****    0 ROOT
