@<TRIPOS>MOLECULE
UMN
   69    74     1     0     0
SMALL
No Charge or Current Charge


@<TRIPOS>ATOM
      1 C2           0.0680     7.0420    49.0390 c3         1 UMN       0.155600
      2 C3           0.0030     8.6070    49.1200 c5         1 UMN       0.182700
      3 C5          -0.6140     9.1880    51.5010 c5         1 UMN      -0.036100
      4 C6          -1.7670     9.3850    50.5590 ca         1 UMN      -0.079300
      5 C7          -3.0590     9.8210    50.8920 ca         1 UMN      -0.101000
      6 C8          -4.0230     9.9400    49.8720 ca         1 UMN      -0.103000
      7 C10         -2.3850     9.1780    48.2260 ca         1 UMN      -0.078000
      8 C11         -1.4320     9.0730    49.2550 ca         1 UMN      -0.107300
      9 C15          2.6220     9.9150    46.6160 c3         1 UMN       0.026000
     10 C19          7.7250    10.1790    46.3390 ca         1 UMN      -0.111000
     11 C21          8.2940     8.1830    44.9880 cp         1 UMN      -0.168500
     12 C22          6.9080     7.8800    44.8940 ca         1 UMN      -0.004000
     13 C23          5.9840     8.7200    45.5280 ca         1 UMN      -0.164600
     14 C24          4.5160     8.6160    45.5760 c          1 UMN       0.592600
     15 C26          9.3250     7.3280    44.3160 cp         1 UMN       0.238500
     16 C28         11.2290     7.2540    43.0150 ca         1 UMN       0.392900
     17 C31         13.7420     9.7550    41.6900 c6         1 UMN      -0.132900
     18 C35         11.3110     9.7880    40.9620 c6         1 UMN      -0.132900
     19 C37         10.3760     5.2420    43.6840 ca         1 UMN       0.165900
     20 C38          9.3440     5.9060    44.3710 ca         1 UMN      -0.062000
     21 O1          -0.3550     6.5520    47.7500 oh         1 UMN      -0.660000
     22 C4           0.5780     9.2140    50.4740 c5         1 UMN      -0.084400
     23 C9          -3.6860     9.6180    48.5410 ca         1 UMN      -0.118000
     24 N12          0.7170     9.3270    48.0450 ns         1 UMN      -0.490900
     25 O14          2.7720     8.3930    48.5120 o          1 UMN      -0.596100
     26 N16          4.0660     9.7120    46.3270 n          1 UMN      -0.402800
     27 C17          5.1740    10.5830    46.8280 c5         1 UMN       0.142300
     28 C18          6.3690     9.8420    46.2390 ca         1 UMN      -0.064300
     29 C20          8.6800     9.3520    45.7110 ca         1 UMN      -0.046000
     30 N27         10.2920     7.9860    43.6450 nb         1 UMN      -0.254000
     31 N29         12.2230     7.9230    42.3140 nu         1 UMN      -0.914100
     32 C30         12.2960     9.3740    42.0820 c6         1 UMN       0.247500
     33 C32         13.8140    11.2530    41.3160 c6         1 UMN       0.157100
     34 O33         12.8700    11.5380    40.2610 os         1 UMN      -0.448000
     35 C34         11.4940    11.2830    40.6180 c6         1 UMN       0.157100
     36 N36         11.3200     5.9150    42.9980 nb         1 UMN      -0.240000
     37 Cl39         8.1850     4.9500    45.2990 cl         1 UMN      -0.165000
     38 H42         -0.5720     6.6260    49.8290 h1         1 UMN       0.037200
     39 H41          1.0900     6.7050    49.2510 h1         1 UMN       0.037200
     40 H46         -0.6810     8.2270    52.0240 hc         1 UMN       0.055700
     41 H45         -0.5300     9.9780    52.2560 hc         1 UMN       0.055700
     42 H47         -3.3130    10.0630    51.9220 ha         1 UMN       0.115000
     43 H48         -5.0290    10.2770    50.1120 ha         1 UMN       0.113000
     44 H50         -2.1250     8.9190    47.2020 ha         1 UMN       0.122000
     45 H52          2.4430    10.9790    46.8120 h1         1 UMN       0.074700
     46 H53          2.0320     9.6380    45.7330 h1         1 UMN       0.074700
     47 H56          8.0380    11.0620    46.8910 ha         1 UMN       0.122000
     48 H58          6.5590     7.0200    44.3260 ha         1 UMN       0.144000
     49 H61         14.0810     9.1530    40.8360 hc         1 UMN       0.059200
     50 H62         14.4280     9.5470    42.5220 hc         1 UMN       0.059200
     51 H67         10.2750     9.6050    41.2750 hc         1 UMN       0.059200
     52 H68         11.4830     9.1830    40.0610 hc         1 UMN       0.059200
     53 H69         10.4540     4.1560    43.6890 h4         1 UMN       0.036100
     54 H40         -0.2830     5.5720    47.7780 ho         1 UMN       0.447000
     55 H44          1.4500     8.6660    50.8480 hc         1 UMN       0.063700
     56 H43          0.9030    10.2520    50.3340 hc         1 UMN       0.063700
     57 H49         -4.4340     9.7050    47.7550 ha         1 UMN       0.114000
     58 H51          0.2400     9.9520    47.4090 hn         1 UMN       0.318500
     59 H54          5.2120    10.6070    47.9250 h1         1 UMN       0.064200
     60 H55          5.0990    11.6070    46.4400 h1         1 UMN       0.064200
     61 H57          9.7330     9.6140    45.7910 ha         1 UMN       0.127000
     62 H59         12.9070     7.3220    41.8540 hn         1 UMN       0.506000
     63 H60         12.0420     9.9250    43.0030 h1         1 UMN       0.077700
     64 H63         14.8260    11.5070    40.9700 h1         1 UMN       0.047450
     65 H64         13.5830    11.8800    42.1910 h1         1 UMN       0.047450
     66 H66         11.2180    11.9110    41.4770 h1         1 UMN       0.047450
     67 H65         10.8480    11.5570    39.7720 h1         1 UMN       0.047450
     68 C13          2.0690     9.1190    47.8190 c          1 UMN       0.577100
     69 O25          3.8210     7.7510    45.0600 o          1 UMN      -0.530000
@<TRIPOS>BOND
     1     1     2 1   
     2     1    21 1   
     3     1    38 1   
     4     1    39 1   
     5     2     8 1   
     6     2    22 1   
     7     2    24 1   
     8     3     4 1   
     9     3    22 1   
    10     3    40 1   
    11     3    41 1   
    12     4     5 ar  
    13     4     8 ar  
    14     5     6 ar  
    15     5    42 1   
    16     6    23 ar  
    17     6    43 1   
    18     7     8 ar  
    19     7    23 ar  
    20     7    44 1   
    21     9    26 1   
    22     9    45 1   
    23     9    46 1   
    24     9    68 1   
    25    10    28 ar  
    26    10    29 ar  
    27    10    47 1   
    28    11    12 ar  
    29    11    15 1   
    30    11    29 ar  
    31    12    13 ar  
    32    12    48 1   
    33    13    14 1   
    34    13    28 ar  
    35    14    26 1   
    36    14    69 2   
    37    15    20 ar  
    38    15    30 ar  
    39    16    30 ar  
    40    16    31 1   
    41    16    36 ar  
    42    17    32 1   
    43    17    33 1   
    44    17    49 1   
    45    17    50 1   
    46    18    32 1   
    47    18    35 1   
    48    18    51 1   
    49    18    52 1   
    50    19    20 ar  
    51    19    36 ar  
    52    19    53 1   
    53    20    37 1   
    54    21    54 1   
    55    22    55 1   
    56    22    56 1   
    57    23    57 1   
    58    24    58 1   
    59    24    68 1   
    60    25    68 2   
    61    26    27 1   
    62    27    28 1   
    63    27    59 1   
    64    27    60 1   
    65    29    61 1   
    66    31    32 1   
    67    31    62 1   
    68    32    63 1   
    69    33    34 1   
    70    33    64 1   
    71    33    65 1   
    72    34    35 1   
    73    35    66 1   
    74    35    67 1   
@<TRIPOS>SUBSTRUCTURE
     1 UMN         1 TEMP              0 ****  ****    0 ROOT
