@<TRIPOS>MOLECULE
UMR
   58    61     1     0     0
SMALL
abcg2


@<TRIPOS>ATOM
      1 CAZ         -1.7570    38.9980    18.4820 ca         1 UMR      -0.017500
      2 CBA         -2.3760    40.0960    19.0640 ca         1 UMR       0.107500
      3 CLBB        -1.4280    41.1780    20.0500 cl         1 UMR      -0.192000
      4 CBC         -3.7280    40.3520    18.8880 ca         1 UMR      -0.055000
      5 CBD         -4.4670    39.4730    18.1050 ca         1 UMR       0.107500
      6 CLBE        -6.1630    39.7900    17.8580 cl         1 UMR      -0.192000
      7 CBF         -3.8930    38.3550    17.5220 ca         1 UMR      -0.017500
      8 CAY         -2.5350    38.1320    17.7270 ca         1 UMR      -0.256500
      9 SAC         -1.8090    36.6350    17.0480 sy         1 UMR       1.013100
     10 NAB         -2.5030    36.2190    15.7740 n2         1 UMR      -0.663700
     11 CAA         -2.4440    37.1080    14.6100 c3         1 UMR       0.171100
     12 OAD         -0.3730    36.8790    17.1000 o          1 UMR      -0.540000
     13 N           -2.2210    35.4960    18.1480 n3         1 UMR      -0.747500
     14 CA          -3.0160    34.3230    17.7930 c6         1 UMR       0.174500
     15 C           -4.2980    34.1020    18.6020 c          1 UMR       0.553000
     16 O           -5.0530    33.2190    18.1830 o          1 UMR      -0.567000
     17 CB          -2.1320    33.0650    17.8210 c6         1 UMR      -0.081400
     18 CAH         -1.3840    32.9310    19.1450 c6         1 UMR      -0.077400
     19 CAG         -0.5770    34.1950    19.4430 c6         1 UMR      -0.089400
     20 CAF         -1.4490    35.4530    19.4040 c6         1 UMR       0.241500
     21 CAV         -2.3750    35.5700    20.6380 c3         1 UMR      -0.055500
     22 CAW         -1.8840    36.5300    21.6930 c2         1 UMR      -0.223200
     23 CAX         -0.8510    37.3630    21.6500 c2         1 UMR      -0.307000
     24 CAU         -3.8160    35.9330    20.2650 c3         1 UMR       0.127000
     25 NAM         -4.5920    34.8150    19.7120 n          1 UMR      -0.405800
     26 CAN         -5.8160    34.4710    20.4240 c3         1 UMR       0.040700
     27 CAO         -7.0300    35.2830    20.0280 ca         1 UMR       0.329300
     28 NAP         -8.1090    35.0880    20.7970 nb         1 UMR      -0.678000
     29 CAQ         -9.2290    35.7470    20.4970 ca         1 UMR       0.342900
     30 CAR         -9.3330    36.6270    19.4250 ca         1 UMR      -0.167000
     31 CAS         -8.2110    36.8290    18.6340 ca         1 UMR      -0.067000
     32 CAT         -7.0390    36.1490    18.9400 ca         1 UMR      -0.145000
     33 HAZ         -0.7040    38.8160    18.6210 ha         1 UMR       0.151500
     34 HBC         -4.1940    41.2140    19.3430 ha         1 UMR       0.148000
     35 HBF         -4.4840    37.6680    16.9340 ha         1 UMR       0.151500
     36 HAB         -3.0230    36.6440    13.8130 h1         1 UMR       0.038033
     37 HAC         -2.8780    38.0930    14.8120 h1         1 UMR       0.038033
     38 HAA         -1.4220    37.2520    14.2490 h1         1 UMR       0.038033
     39 HA          -3.3680    34.4800    16.7780 h1         1 UMR       0.124700
     40 HB1         -2.7540    32.1920    17.6290 hc         1 UMR       0.066200
     41 HB2         -1.4170    33.1550    16.9990 hc         1 UMR       0.066200
     42 HAI         -2.0980    32.7370    19.9520 hc         1 UMR       0.048200
     43 HAJ         -0.7170    32.0680    19.1080 hc         1 UMR       0.048200
     44 HAG         -0.1020    34.1310    20.4240 hc         1 UMR       0.058200
     45 HAH          0.2160    34.3030    18.6990 hc         1 UMR       0.058200
     46 HAF         -0.7920    36.3140    19.3790 h1         1 UMR       0.068700
     47 HAV         -2.4340    34.5910    21.1230 hc         1 UMR       0.072700
     48 HAW         -2.4890    36.5150    22.5970 ha         1 UMR       0.171000
     49 HAX         -0.6280    38.0010    22.4960 ha         1 UMR       0.168000
     50 HB5         -0.1870    37.4510    20.8000 ha         1 UMR       0.168000
     51 HB4         -3.8370    36.7850    19.5900 h1         1 UMR       0.053700
     52 HAU         -4.3400    36.2370    21.1670 h1         1 UMR       0.053700
     53 HAN         -6.0350    33.4190    20.2490 h1         1 UMR       0.081200
     54 HB3         -5.6420    34.5980    21.4930 h1         1 UMR       0.081200
     55 HAQ        -10.0820    35.5660    21.1420 h4         1 UMR       0.019100
     56 HAR        -10.2660    37.1360    19.2250 ha         1 UMR       0.123000
     57 HAS         -8.2440    37.5060    17.7910 ha         1 UMR       0.119000
     58 HAT         -6.1500    36.2880    18.3430 ha         1 UMR       0.123000
@<TRIPOS>BOND
     1     1     2 ar  
     2     1     8 ar  
     3     1    33 1   
     4     2     3 1   
     5     2     4 ar  
     6     4     5 ar  
     7     4    34 1   
     8     5     6 1   
     9     5     7 ar  
    10     7     8 ar  
    11     7    35 1   
    12     8     9 1   
    13     9    10 2   
    14     9    12 2   
    15     9    13 1   
    16    10    11 1   
    17    11    36 1   
    18    11    37 1   
    19    11    38 1   
    20    13    14 1   
    21    13    20 1   
    22    14    15 1   
    23    14    17 1   
    24    14    39 1   
    25    15    16 2   
    26    15    25 1   
    27    17    18 1   
    28    17    40 1   
    29    17    41 1   
    30    18    19 1   
    31    18    42 1   
    32    18    43 1   
    33    19    20 1   
    34    19    44 1   
    35    19    45 1   
    36    20    21 1   
    37    20    46 1   
    38    21    22 1   
    39    21    24 1   
    40    21    47 1   
    41    22    23 2   
    42    22    48 1   
    43    23    49 1   
    44    23    50 1   
    45    24    25 1   
    46    24    51 1   
    47    24    52 1   
    48    25    26 1   
    49    26    27 1   
    50    26    53 1   
    51    26    54 1   
    52    27    28 ar  
    53    27    32 ar  
    54    28    29 ar  
    55    29    30 ar  
    56    29    55 1   
    57    30    31 ar  
    58    30    56 1   
    59    31    32 ar  
    60    31    57 1   
    61    32    58 1   
@<TRIPOS>SUBSTRUCTURE
     1 UMR         1 TEMP              0 ****  ****    0 ROOT
