@<TRIPOS>MOLECULE
UMR
   58    61     1     0     0
SMALL
No Charge or Current Charge


@<TRIPOS>ATOM
      1 CAZ         -0.1040    38.7430    17.7670 ca         1 UMR      -0.017500
      2 CBA          0.6720    39.7420    18.3780 ca         1 UMR       0.107500
      3 ClBB         2.4240    39.7120    18.2180 cl         1 UMR      -0.192000
      4 CBC          0.0550    40.7630    19.1200 ca         1 UMR      -0.055000
      5 CBD         -1.3430    40.7850    19.2510 ca         1 UMR       0.107500
      6 ClBE        -2.1170    42.0590    20.1860 cl         1 UMR      -0.192000
      7 CBF         -2.1280    39.7910    18.6410 ca         1 UMR      -0.017500
      8 CAY         -1.5090    38.7650    17.8970 ca         1 UMR      -0.256500
      9 SAC         -2.4950    37.4690    17.1410 sy         1 UMR       1.013100
     10 NAB         -4.0110    37.6510    17.3240 n2         1 UMR      -0.663700
     11 CAA         -4.8780    37.5630    16.1480 c3         1 UMR       0.171100
     12 OAD         -1.8840    37.2080    15.8350 o          1 UMR      -0.540000
     13 N           -2.1390    36.0870    18.0700 n3         1 UMR      -0.747500
     14 CA          -2.5720    34.7420    17.5490 c6         1 UMR       0.174500
     15 C           -4.0600    34.3450    17.8100 c          1 UMR       0.553000
     16 O           -4.8320    34.1390    16.8800 o          1 UMR      -0.567000
     17 CB          -1.5820    33.6530    18.0690 c6         1 UMR      -0.081400
     18 CAH         -1.3150    33.7060    19.5900 c6         1 UMR      -0.077400
     19 CAG         -0.8970    35.1360    19.9890 c6         1 UMR      -0.089400
     20 CAF         -1.9530    36.1870    19.5510 c6         1 UMR       0.241500
     21 CAV         -3.2430    36.1230    20.4610 c3         1 UMR      -0.055500
     22 CAW         -3.5290    37.4750    21.0980 c2         1 UMR      -0.223200
     23 CAX         -3.2360    37.8150    22.3630 c2         1 UMR      -0.307000
     24 CAU         -4.5560    35.5800    19.8490 c3         1 UMR       0.127000
     25 NAM         -4.5010    34.2800    19.1440 n          1 UMR      -0.405800
     26 CAN         -5.6010    33.3290    19.4910 c3         1 UMR       0.040700
     27 CAO         -7.0390    33.8120    19.2500 ca         1 UMR       0.329300
     28 NAP         -7.6430    34.4700    20.2740 nb         1 UMR      -0.678000
     29 CAQ         -8.9140    34.9010    20.0980 ca         1 UMR       0.342900
     30 CAR         -9.6350    34.6860    18.9100 ca         1 UMR      -0.167000
     31 CAS         -9.0230    33.9900    17.8540 ca         1 UMR      -0.067000
     32 CAT         -7.7040    33.5430    18.0340 ca         1 UMR      -0.145000
     33 HAZ          0.3850    37.9510    17.2030 ha         1 UMR       0.151500
     34 HBC          0.6580    41.5330    19.5920 ha         1 UMR       0.148000
     35 HBF         -3.2090    39.8230    18.7510 ha         1 UMR       0.151500
     36 HAB         -5.9340    37.5790    16.4470 h1         1 UMR       0.038033
     37 HAC         -4.7070    38.4080    15.4670 h1         1 UMR       0.038033
     38 HAA         -4.7030    36.6330    15.5900 h1         1 UMR       0.038033
     39 HA          -2.4930    34.7330    16.4520 h1         1 UMR       0.124700
     40 HB1         -1.9460    32.6550    17.7890 hc         1 UMR       0.066200
     41 HB2         -0.6260    33.7790    17.5430 hc         1 UMR       0.066200
     42 HAI         -2.2010    33.3890    20.1540 hc         1 UMR       0.048200
     43 HAJ         -0.5160    32.9990    19.8530 hc         1 UMR       0.048200
     44 HAG         -0.7210    35.1950    21.0710 hc         1 UMR       0.058200
     45 HAH          0.0640    35.3790    19.5150 hc         1 UMR       0.058200
     46 HAF         -1.4760    37.1480    19.7910 h1         1 UMR       0.068700
     47 HAV         -3.0240    35.4330    21.2850 hc         1 UMR       0.072700
     48 HAW         -4.0150    38.1940    20.4340 ha         1 UMR       0.171000
     49 HAX         -3.4720    38.8060    22.7560 ha         1 UMR       0.168000
     50 HB5         -2.7530    37.1200    23.0520 ha         1 UMR       0.168000
     51 HB4         -4.9900    36.3220    19.1720 h1         1 UMR       0.053700
     52 HAU         -5.2640    35.4940    20.6830 h1         1 UMR       0.053700
     53 HAN         -5.4510    32.4010    18.9220 h1         1 UMR       0.081200
     54 HB3         -5.4990    33.0590    20.5500 h1         1 UMR       0.081200
     55 HAQ         -9.3660    35.4340    20.9360 h4         1 UMR       0.019100
     56 HAR        -10.6540    35.0530    18.8190 ha         1 UMR       0.123000
     57 HAS         -9.5560    33.8000    16.9230 ha         1 UMR       0.119000
     58 HAT         -7.2000    32.9940    17.2410 ha         1 UMR       0.123000
@<TRIPOS>BOND
     1     1     2 ar  
     2     1     8 ar  
     3     1    33 1   
     4     2     3 1   
     5     2     4 ar  
     6     4     5 ar  
     7     4    34 1   
     8     5     6 1   
     9     5     7 ar  
    10     7     8 ar  
    11     7    35 1   
    12     8     9 1   
    13     9    10 2   
    14     9    12 2   
    15     9    13 1   
    16    10    11 1   
    17    11    36 1   
    18    11    37 1   
    19    11    38 1   
    20    13    14 1   
    21    13    20 1   
    22    14    15 1   
    23    14    17 1   
    24    14    39 1   
    25    15    16 2   
    26    15    25 1   
    27    17    18 1   
    28    17    40 1   
    29    17    41 1   
    30    18    19 1   
    31    18    42 1   
    32    18    43 1   
    33    19    20 1   
    34    19    44 1   
    35    19    45 1   
    36    20    21 1   
    37    20    46 1   
    38    21    22 1   
    39    21    24 1   
    40    21    47 1   
    41    22    23 2   
    42    22    48 1   
    43    23    49 1   
    44    23    50 1   
    45    24    25 1   
    46    24    51 1   
    47    24    52 1   
    48    25    26 1   
    49    26    27 1   
    50    26    53 1   
    51    26    54 1   
    52    27    28 ar  
    53    27    32 ar  
    54    28    29 ar  
    55    29    30 ar  
    56    29    55 1   
    57    30    31 ar  
    58    30    56 1   
    59    31    32 ar  
    60    31    57 1   
    61    32    58 1   
@<TRIPOS>SUBSTRUCTURE
     1 UMR         1 TEMP              0 ****  ****    0 ROOT
