@<TRIPOS>MOLECULE
UMT
   43    46     1     0     0
SMALL
No Charge or Current Charge


@<TRIPOS>ATOM
      1 N1          -9.6050    16.9340     1.8910 nb         1 UMT      -0.251000
      2 C2         -16.8580    13.0420     4.5770 ca         1 UMT      -0.142000
      3 N3         -11.5210    17.8950     2.9750 nb         1 UMT      -0.257000
      4 C4         -16.5430    15.3280     3.8790 ca         1 UMT      -0.096800
      5 N4         -18.0410    17.0030     4.1420 na         1 UMT      -0.224700
      6 C5         -15.9540    16.5130     3.3200 cc         1 UMT      -0.143400
      7 C6         -14.5920    16.6300     2.6890 c3         1 UMT       0.005800
      8 C1         -18.1370    13.3860     5.0750 ca         1 UMT      -0.092000
      9 C10        -10.1660    15.7150     1.9890 ca         1 UMT       0.151900
     10 C11        -10.3070    17.9780     2.3870 ca         1 UMT       0.394900
     11 C12         -8.4950    19.5060     1.4310 c6         1 UMT       0.189300
     12 C13         -7.7190    20.8010     1.8120 c6         1 UMT       0.139100
     13 C14         -9.6350    21.7580     2.8910 c6         1 UMT       0.139100
     14 C15        -10.5190    20.5160     2.5710 c6         1 UMT       0.189300
     15 C16        -16.8950    17.5240     3.4930 cd         1 UMT      -0.153100
     16 C17        -17.7800    15.6620     4.3560 ca         1 UMT      -0.047200
     17 C18        -18.6100    14.7110     4.9650 ca         1 UMT      -0.129000
     18 C3         -16.0440    14.0200     3.9680 ca         1 UMT      -0.062000
     19 C8         -12.0790    16.6730     3.0720 ca         1 UMT       0.171300
     20 C9         -11.4240    15.5340     2.5810 ca         1 UMT      -0.284000
     21 N2          -9.7150    19.2690     2.2880 nh         1 UMT      -0.775300
     22 O1          -8.6090    21.9360     1.8890 os         1 UMT      -0.447000
     23 H19        -18.8840    17.5090     4.3990 hn         1 UMT       0.350000
     24 H5         -14.4550    15.8200     1.9620 hc         1 UMT       0.049700
     25 H4         -14.5250    17.5680     2.1240 hc         1 UMT       0.049700
     26 H1         -18.7590    12.6260     5.5430 ha         1 UMT       0.109000
     27 H9          -9.6000    14.8760     1.5870 h4         1 UMT       0.018100
     28 H10         -8.7910    19.5720     0.3740 h1         1 UMT       0.065200
     29 H11         -7.7850    18.6700     1.5150 h1         1 UMT       0.065200
     30 H13         -6.9420    21.0030     1.0610 h1         1 UMT       0.053450
     31 H12         -7.2230    20.6650     2.7840 h1         1 UMT       0.053450
     32 H14         -9.1600    21.6320     3.8740 h1         1 UMT       0.053450
     33 H15        -10.2610    22.6600     2.9300 h1         1 UMT       0.053450
     34 H16        -11.1560    20.7520     1.7060 h1         1 UMT       0.065200
     35 H17        -11.1880    20.3690     3.4320 h1         1 UMT       0.065200
     36 H18        -16.8290    18.5710     3.2070 h4         1 UMT       0.213000
     37 H20        -19.5930    14.9850     5.3430 ha         1 UMT       0.112000
     38 H3         -15.0610    13.7660     3.5790 ha         1 UMT       0.112000
     39 H8         -11.8710    14.5470     2.6530 ha         1 UMT       0.134000
     40 C7         -13.4490    16.5820     3.7240 c3         1 UMT      -0.135700
     41 H2         -16.5010    12.0190     4.6630 ha         1 UMT       0.110000
     42 H6         -13.5850    17.3980     4.4430 hc         1 UMT       0.062700
     43 H7         -13.5210    15.6520     4.3000 hc         1 UMT       0.062700
@<TRIPOS>BOND
     1     1     9 ar  
     2     1    10 ar  
     3     2     8 ar  
     4     2    18 ar  
     5     2    41 1   
     6     3    10 ar  
     7     3    19 ar  
     8     4     6 1   
     9     4    16 ar  
    10     4    18 ar  
    11     5    15 1   
    12     5    16 1   
    13     5    23 1   
    14     6     7 1   
    15     6    15 2   
    16     7    24 1   
    17     7    25 1   
    18     7    40 1   
    19     8    17 ar  
    20     8    26 1   
    21     9    20 ar  
    22     9    27 1   
    23    10    21 1   
    24    11    12 1   
    25    11    21 1   
    26    11    28 1   
    27    11    29 1   
    28    12    22 1   
    29    12    30 1   
    30    12    31 1   
    31    13    14 1   
    32    13    22 1   
    33    13    32 1   
    34    13    33 1   
    35    14    21 1   
    36    14    34 1   
    37    14    35 1   
    38    15    36 1   
    39    16    17 ar  
    40    17    37 1   
    41    18    38 1   
    42    19    20 ar  
    43    19    40 1   
    44    20    39 1   
    45    40    42 1   
    46    40    43 1   
@<TRIPOS>SUBSTRUCTURE
     1 UMT         1 TEMP              0 ****  ****    0 ROOT
