@<TRIPOS>MOLECULE
UMT
   43    46     1     0     0
SMALL
abcg2


@<TRIPOS>ATOM
      1 N1          -9.6410    17.0030     1.8810 nb         1 UMT      -0.251000
      2 C2         -16.8290    13.0790     4.4920 ca         1 UMT      -0.142000
      3 N3         -11.5550    17.9510     2.9130 nb         1 UMT      -0.257000
      4 C4         -16.4390    15.3540     3.8500 ca         1 UMT      -0.096800
      5 N4         -17.8990    17.0200     4.1530 na         1 UMT      -0.224700
      6 C5         -15.8610    16.5620     3.3380 cc         1 UMT      -0.143400
      7 C6         -14.5040    16.7150     2.7370 c3         1 UMT       0.005800
      8 C1         -18.0960    13.4290     4.9870 ca         1 UMT      -0.092000
      9 C10        -10.1370    15.8020     2.1240 ca         1 UMT       0.151900
     10 C11        -10.3690    18.0450     2.3000 ca         1 UMT       0.394900
     11 C12         -8.6730    19.5130     1.3030 c6         1 UMT       0.189300
     12 C13         -7.8480    20.6310     1.9140 c6         1 UMT       0.139100
     13 C14         -9.7130    21.5620     2.9330 c6         1 UMT       0.139100
     14 C15        -10.6260    20.4870     2.3700 c6         1 UMT       0.189300
     15 C16        -16.7890    17.5420     3.5480 cd         1 UMT      -0.153100
     16 C17        -17.7180    15.6840     4.3520 ca         1 UMT      -0.047200
     17 C18        -18.5590    14.7290     4.9240 ca         1 UMT      -0.129000
     18 C3         -16.0000    14.0270     3.9250 ca         1 UMT      -0.062000
     19 C8         -12.0360    16.7400     3.1500 ca         1 UMT       0.171300
     20 C9         -11.3410    15.5950     2.7690 ca         1 UMT      -0.284000
     21 N2          -9.8600    19.2860     2.1030 nh         1 UMT      -0.775300
     22 O1          -8.6060    21.8050     2.0960 os         1 UMT      -0.447000
     23 H19        -18.7210    17.5440     4.4020 hn         1 UMT       0.350000
     24 H5         -14.3340    15.9300     1.9940 hc         1 UMT       0.049700
     25 H4         -14.4370    17.6660     2.2050 hc         1 UMT       0.049700
     26 H1         -18.7240    12.6640     5.4260 ha         1 UMT       0.109000
     27 H9          -9.5410    14.9600     1.7850 h4         1 UMT       0.018100
     28 H10         -8.9580    19.7750     0.2770 h1         1 UMT       0.065200
     29 H11         -8.0770    18.6060     1.2610 h1         1 UMT       0.065200
     30 H13         -7.0160    20.8770     1.2520 h1         1 UMT       0.053450
     31 H12         -7.4290    20.2920     2.8720 h1         1 UMT       0.053450
     32 H14         -9.3780    21.2610     3.9360 h1         1 UMT       0.053450
     33 H15        -10.2640    22.4980     3.0290 h1         1 UMT       0.053450
     34 H16        -11.1010    20.8440     1.4460 h1         1 UMT       0.065200
     35 H17        -11.4160    20.2730     3.0850 h1         1 UMT       0.065200
     36 H18        -16.7400    18.5930     3.3060 h4         1 UMT       0.213000
     37 H20        -19.5370    14.9960     5.3030 ha         1 UMT       0.112000
     38 H3         -15.0250    13.7460     3.5440 ha         1 UMT       0.112000
     39 H8         -11.7250    14.6030     2.9580 ha         1 UMT       0.134000
     40 C7         -13.3850    16.6510     3.7920 c3         1 UMT      -0.135700
     41 H2         -16.5020    12.0490     4.5570 ha         1 UMT       0.110000
     42 H6         -13.5120    17.4730     4.4980 hc         1 UMT       0.062700
     43 H7         -13.4650    15.7160     4.3520 hc         1 UMT       0.062700
@<TRIPOS>BOND
     1     1     9 ar  
     2     1    10 ar  
     3     2     8 ar  
     4     2    18 ar  
     5     2    41 1   
     6     3    10 ar  
     7     3    19 ar  
     8     4     6 1   
     9     4    16 ar  
    10     4    18 ar  
    11     5    15 1   
    12     5    16 1   
    13     5    23 1   
    14     6     7 1   
    15     6    15 2   
    16     7    24 1   
    17     7    25 1   
    18     7    40 1   
    19     8    17 ar  
    20     8    26 1   
    21     9    20 ar  
    22     9    27 1   
    23    10    21 1   
    24    11    12 1   
    25    11    21 1   
    26    11    28 1   
    27    11    29 1   
    28    12    22 1   
    29    12    30 1   
    30    12    31 1   
    31    13    14 1   
    32    13    22 1   
    33    13    32 1   
    34    13    33 1   
    35    14    21 1   
    36    14    34 1   
    37    14    35 1   
    38    15    36 1   
    39    16    17 ar  
    40    17    37 1   
    41    18    38 1   
    42    19    20 ar  
    43    19    40 1   
    44    20    39 1   
    45    40    42 1   
    46    40    43 1   
@<TRIPOS>SUBSTRUCTURE
     1 UMT         1 TEMP              0 ****  ****    0 ROOT
