@<TRIPOS>MOLECULE
UMV
   59    62     1     0     0
SMALL
abcg2


@<TRIPOS>ATOM
      1 C1         845.0260   -24.6980   141.0100 ca         1 UMV      -0.187000
      2 O1         843.6540   -25.9210   144.1730 os         1 UMV      -0.239200
      3 C2         844.1390   -25.2880   141.9050 ca         1 UMV       0.119100
      4 N1         840.8390   -27.5460   140.8900 n          1 UMV      -0.304000
      5 O2         842.9840   -25.8880   141.5710 os         1 UMV      -0.341100
      6 N2         840.8450   -29.8540   141.0660 ns         1 UMV      -0.466500
      7 C3         844.4420   -25.2560   143.2730 ca         1 UMV       0.065100
      8 C4         845.5890   -24.6350   143.7290 ca         1 UMV      -0.077000
      9 C5         846.4680   -24.0450   142.8290 ca         1 UMV      -0.132000
     10 C6         846.1830   -24.0830   141.4750 ca         1 UMV      -0.072000
     11 C7         842.5950   -25.9250   140.2110 c3         1 UMV       0.138600
     12 C8         841.1360   -26.3220   140.1600 c3         1 UMV       0.109000
     13 C9         841.1540   -28.7550   140.3090 c          1 UMV       0.617000
     14 C10        840.2610   -29.8860   142.3240 c          1 UMV       0.590200
     15 C11        839.9630   -28.5790   142.8490 cc         1 UMV      -0.383200
     16 C12        840.2710   -27.4880   142.1270 cd         1 UMV       0.017600
     17 C13        842.3690   -25.5500   144.4120 ca         1 UMV       0.148100
     18 C14        841.6010   -26.4080   145.1640 ca         1 UMV      -0.089300
     19 C15        840.2560   -26.0250   145.4280 ca         1 UMV      -0.021000
     20 C16        839.7270   -24.8010   144.9330 ca         1 UMV      -0.043000
     21 C17        840.5730   -23.9420   144.1830 ca         1 UMV      -0.052300
     22 C18        841.8620   -24.3230   143.9400 ca         1 UMV      -0.132000
     23 C19        839.4050   -26.8670   146.1780 ca         1 UMV      -0.064000
     24 C20        838.1000   -26.5120   146.4220 ca         1 UMV      -0.008000
     25 C21        837.5720   -25.2990   145.9310 ca         1 UMV      -0.084000
     26 C22        838.3780   -24.4710   145.2050 ca         1 UMV      -0.099000
     27 O3         841.6630   -28.8400   139.2110 o          1 UMV      -0.564000
     28 O4         840.0480   -30.9490   142.8790 o          1 UMV      -0.526000
     29 C23        837.2650   -27.3870   147.1800 cg         1 UMV       0.319000
     30 N3         836.5850   -28.0890   147.7910 n1         1 UMV      -0.443000
     31 C24        842.1360   -27.7090   145.6820 c3         1 UMV      -0.045800
     32 C25        840.0730   -22.6240   143.6650 c3         1 UMV      -0.095100
     33 C26        839.9020   -21.5600   144.7260 c          1 UMV       0.592100
     34 O5         840.8160   -21.6560   145.6760 os         1 UMV      -0.429100
     35 C27        840.7910   -20.6800   146.7190 c3         1 UMV       0.148900
     36 O6         839.0530   -20.7040   144.6930 o          1 UMV      -0.487000
     37 H1         844.8340   -24.7170   139.9460 ha         1 UMV       0.121000
     38 H2         841.0720   -30.7460   140.6440 hn         1 UMV       0.342500
     39 H3         845.7950   -24.6270   144.7920 ha         1 UMV       0.134000
     40 H4         847.3670   -23.5640   143.1900 ha         1 UMV       0.124000
     41 H5         846.8620   -23.6340   140.7620 ha         1 UMV       0.119000
     42 H6         843.2240   -26.6230   139.6530 h1         1 UMV       0.057200
     43 H7         842.6820   -24.9410   139.7400 h1         1 UMV       0.057200
     44 H8         840.5190   -25.5310   140.5840 h1         1 UMV       0.072700
     45 H9         840.8370   -26.4330   139.1190 h1         1 UMV       0.072700
     46 H10        839.4930   -28.4850   143.8160 ha         1 UMV       0.225000
     47 H11        840.0590   -26.4930   142.4930 h4         1 UMV       0.211000
     48 H12        842.5050   -23.6550   143.3800 ha         1 UMV       0.127000
     49 H13        839.7760   -27.8030   146.5700 ha         1 UMV       0.133000
     50 H14        836.5420   -25.0350   146.1280 ha         1 UMV       0.130000
     51 H15        837.9600   -23.5470   144.8300 ha         1 UMV       0.122000
     52 H16        842.0470   -27.7720   146.7670 hc         1 UMV       0.053033
     53 H17        841.5860   -28.5540   145.2620 hc         1 UMV       0.053033
     54 H18        843.1830   -27.8500   145.4340 hc         1 UMV       0.053033
     55 H19        840.7880   -22.2260   142.9380 hc         1 UMV       0.079700
     56 H20        839.1290   -22.7240   143.1280 hc         1 UMV       0.079700
     57 H21        841.6210   -20.9250   147.3750 h1         1 UMV       0.050700
     58 H22        840.9260   -19.6730   146.3260 h1         1 UMV       0.050700
     59 H23        839.8600   -20.7260   147.2820 h1         1 UMV       0.050700
@<TRIPOS>BOND
     1     1     3 ar  
     2     1    10 ar  
     3     1    37 1   
     4     2     7 1   
     5     2    17 1   
     6     3     5 1   
     7     3     7 ar  
     8     4    12 1   
     9     4    13 1   
    10     4    16 1   
    11     5    11 1   
    12     6    13 1   
    13     6    14 1   
    14     6    38 1   
    15     7     8 ar  
    16     8     9 ar  
    17     8    39 1   
    18     9    10 ar  
    19     9    40 1   
    20    10    41 1   
    21    11    12 1   
    22    11    42 1   
    23    11    43 1   
    24    12    44 1   
    25    12    45 1   
    26    13    27 2   
    27    14    15 1   
    28    14    28 2   
    29    15    16 2   
    30    15    46 1   
    31    16    47 1   
    32    17    18 ar  
    33    17    22 ar  
    34    18    19 ar  
    35    18    31 1   
    36    19    20 ar  
    37    19    23 ar  
    38    20    21 ar  
    39    20    26 ar  
    40    21    22 ar  
    41    21    32 1   
    42    22    48 1   
    43    23    24 ar  
    44    23    49 1   
    45    24    25 ar  
    46    24    29 1   
    47    25    26 ar  
    48    25    50 1   
    49    26    51 1   
    50    29    30 3   
    51    31    52 1   
    52    31    53 1   
    53    31    54 1   
    54    32    33 1   
    55    32    55 1   
    56    32    56 1   
    57    33    34 1   
    58    33    36 2   
    59    34    35 1   
    60    35    57 1   
    61    35    58 1   
    62    35    59 1   
@<TRIPOS>SUBSTRUCTURE
     1 UMV         1 TEMP              0 ****  ****    0 ROOT
