@<TRIPOS>MOLECULE
UMV
   59    62     1     0     0
SMALL
No Charge or Current Charge


@<TRIPOS>ATOM
      1 C1         845.0730   -24.6590   141.2230 ca         1 UMV      -0.187000
      2 O1         843.7230   -25.8280   144.4940 os         1 UMV      -0.239200
      3 C2         844.1670   -25.2180   142.1560 ca         1 UMV       0.119100
      4 N1         840.7760   -27.5090   140.9010 n          1 UMV      -0.304000
      5 O2         842.9380   -25.7180   141.7580 os         1 UMV      -0.341100
      6 N2         840.5950   -29.8460   140.6920 ns         1 UMV      -0.466500
      7 C3         844.5320   -25.2600   143.5280 ca         1 UMV       0.065100
      8 C4         845.7830   -24.7670   143.9390 ca         1 UMV      -0.077000
      9 C5         846.6700   -24.2110   143.0040 ca         1 UMV      -0.132000
     10 C6         846.3150   -24.1560   141.6480 ca         1 UMV      -0.072000
     11 C7         842.5160   -25.7220   140.3800 c3         1 UMV       0.138600
     12 C8         841.0440   -26.1790   140.2980 c3         1 UMV       0.109000
     13 C9         840.9030   -28.6620   140.0960 c          1 UMV       0.617000
     14 C10        840.1670   -30.0590   141.9620 c          1 UMV       0.590200
     15 C11        840.0390   -28.8350   142.7460 cc         1 UMV      -0.383200
     16 C12        840.3420   -27.6010   142.2190 cd         1 UMV       0.017600
     17 C13        842.3820   -25.5440   144.6620 ca         1 UMV       0.148100
     18 C14        841.5500   -26.4840   145.3100 ca         1 UMV      -0.089300
     19 C15        840.1710   -26.1840   145.4860 ca         1 UMV      -0.021000
     20 C16        839.6400   -24.9500   145.0150 ca         1 UMV      -0.043000
     21 C17        840.4940   -24.0110   144.3780 ca         1 UMV      -0.052300
     22 C18        841.8570   -24.3160   144.2270 ca         1 UMV      -0.132000
     23 C19        839.3060   -27.1090   146.1220 ca         1 UMV      -0.064000
     24 C20        837.9400   -26.8280   146.2910 ca         1 UMV      -0.008000
     25 C21        837.4220   -25.6100   145.8290 ca         1 UMV      -0.084000
     26 C22        838.2620   -24.6810   145.2000 ca         1 UMV      -0.099000
     27 O3         841.2690   -28.6300   138.9330 o          1 UMV      -0.564000
     28 O4         839.9160   -31.1720   142.3860 o          1 UMV      -0.526000
     29 C23        837.0790   -27.7810   146.9370 cg         1 UMV       0.319000
     30 N3         836.3870   -28.5620   147.4610 n1         1 UMV      -0.443000
     31 C24        842.1400   -27.8120   145.8090 c3         1 UMV      -0.045800
     32 C25        840.0140   -22.6560   143.8390 c3         1 UMV      -0.095100
     33 C26        839.9770   -21.6030   144.9500 c          1 UMV       0.592100
     34 O5         841.0650   -20.7680   144.8950 os         1 UMV      -0.429100
     35 C27        841.1730   -19.7310   145.8870 c3         1 UMV       0.148900
     36 O6         839.0890   -21.5220   145.7880 o          1 UMV      -0.487000
     37 H1         844.8370   -24.6060   140.1640 ha         1 UMV       0.121000
     38 H2         840.6930   -30.6660   140.1160 hn         1 UMV       0.342500
     39 H3         846.0630   -24.8170   144.9890 ha         1 UMV       0.134000
     40 H4         847.6340   -23.8260   143.3300 ha         1 UMV       0.124000
     41 H5         847.0050   -23.7270   140.9240 ha         1 UMV       0.119000
     42 H6         843.1430   -26.4000   139.7860 h1         1 UMV       0.057200
     43 H7         842.5860   -24.7160   139.9480 h1         1 UMV       0.057200
     44 H8         840.4210   -25.4290   140.8030 h1         1 UMV       0.072700
     45 H9         840.7320   -26.1840   139.2460 h1         1 UMV       0.072700
     46 H10        839.6890   -28.9610   143.7630 ha         1 UMV       0.225000
     47 H11        840.2700   -26.6520   142.7450 h4         1 UMV       0.211000
     48 H12        842.5150   -23.5890   143.7590 ha         1 UMV       0.127000
     49 H13        839.6780   -28.0600   146.4940 ha         1 UMV       0.133000
     50 H14        836.3660   -25.3790   145.9580 ha         1 UMV       0.130000
     51 H15        837.8150   -23.7500   144.8680 ha         1 UMV       0.122000
     52 H16        842.0090   -27.9160   146.8920 hc         1 UMV       0.053033
     53 H17        841.6530   -28.6670   145.3260 hc         1 UMV       0.053033
     54 H18        843.2130   -27.9150   145.6130 hc         1 UMV       0.053033
     55 H19        840.7090   -22.3160   143.0630 hc         1 UMV       0.079700
     56 H20        839.0230   -22.7410   143.3830 hc         1 UMV       0.079700
     57 H21        842.0850   -19.1420   145.7250 h1         1 UMV       0.050700
     58 H22        840.3150   -19.0490   145.8360 h1         1 UMV       0.050700
     59 H23        841.2190   -20.1580   146.8970 h1         1 UMV       0.050700
@<TRIPOS>BOND
     1     1     3 ar  
     2     1    10 ar  
     3     1    37 1   
     4     2     7 1   
     5     2    17 1   
     6     3     5 1   
     7     3     7 ar  
     8     4    12 1   
     9     4    13 1   
    10     4    16 1   
    11     5    11 1   
    12     6    13 1   
    13     6    14 1   
    14     6    38 1   
    15     7     8 ar  
    16     8     9 ar  
    17     8    39 1   
    18     9    10 ar  
    19     9    40 1   
    20    10    41 1   
    21    11    12 1   
    22    11    42 1   
    23    11    43 1   
    24    12    44 1   
    25    12    45 1   
    26    13    27 2   
    27    14    15 1   
    28    14    28 2   
    29    15    16 2   
    30    15    46 1   
    31    16    47 1   
    32    17    18 ar  
    33    17    22 ar  
    34    18    19 ar  
    35    18    31 1   
    36    19    20 ar  
    37    19    23 ar  
    38    20    21 ar  
    39    20    26 ar  
    40    21    22 ar  
    41    21    32 1   
    42    22    48 1   
    43    23    24 ar  
    44    23    49 1   
    45    24    25 ar  
    46    24    29 1   
    47    25    26 ar  
    48    25    50 1   
    49    26    51 1   
    50    29    30 3   
    51    31    52 1   
    52    31    53 1   
    53    31    54 1   
    54    32    33 1   
    55    32    55 1   
    56    32    56 1   
    57    33    34 1   
    58    33    36 2   
    59    34    35 1   
    60    35    57 1   
    61    35    58 1   
    62    35    59 1   
@<TRIPOS>SUBSTRUCTURE
     1 UMV         1 TEMP              0 ****  ****    0 ROOT
