@<TRIPOS>MOLECULE
UMW
   29    29     1     0     0
SMALL
bcc


@<TRIPOS>ATOM
      1 N1          41.2630    63.2740    44.2600 n3         1 UMW      -0.783600
      2 C4          41.5920    63.9030    43.0060 c3         1 UMW       0.177800
      3 C5          41.5640    64.0200    45.4700 c5         1 UMW       0.195800
      4 C6          40.7780    63.2810    46.5360 c5         1 UMW      -0.087400
      5 C7          39.4770    62.9640    45.8070 c5         1 UMW       0.138500
      6 C8          39.9590    62.6380    44.3890 c5         1 UMW       0.194800
      7 C1          43.8210    62.7670    42.7600 c3         1 UMW      -0.095100
      8 C2          42.4840    63.0540    42.0840 c3         1 UMW       0.154800
      9 C3          41.7910    61.7550    41.7000 c3         1 UMW      -0.095100
     10 O1          42.6840    63.7710    40.8710 oh         1 UMW      -0.600800
     11 N2          38.7390    61.8660    46.4060 n8         1 UMW      -0.876800
     12 H2          42.1210    64.8420    43.2090 h1         1 UMW       0.032200
     13 H3          40.6830    64.1760    42.4480 h1         1 UMW       0.032200
     14 H4          42.6390    64.0340    45.6690 h1         1 UMW       0.031200
     15 H5          41.2330    65.0690    45.4130 h1         1 UMW       0.031200
     16 H6          41.2810    62.3490    46.8090 hc         1 UMW       0.059700
     17 H7          40.6310    63.8690    47.4430 hc         1 UMW       0.059700
     18 H8          38.8890    63.8940    45.7620 h1         1 UMW       0.014700
     19 H9          39.2540    63.0020    43.6320 h1         1 UMW       0.044200
     20 H10         40.0240    61.5500    44.2650 h1         1 UMW       0.044200
     21 H11         43.6770    62.2300    43.6970 hc         1 UMW       0.041867
     22 H12         44.4630    62.1600    42.1180 hc         1 UMW       0.041867
     23 H13         44.3510    63.6960    42.9880 hc         1 UMW       0.041867
     24 H14         41.6320    61.1320    42.5780 hc         1 UMW       0.041867
     25 H15         40.8190    61.9440    41.2390 hc         1 UMW       0.041867
     26 H16         42.3980    61.1850    40.9940 hc         1 UMW       0.041867
     27 H17         43.1630    64.5810    41.0780 ho         1 UMW       0.396000
     28 H18         38.4220    62.1440    47.3270 hn         1 UMW       0.339300
     29 H19         37.8930    61.6980    45.8740 hn         1 UMW       0.339300
@<TRIPOS>BOND
     1     1     2 1   
     2     1     3 1   
     3     1     6 1   
     4     2     8 1   
     5     2    12 1   
     6     2    13 1   
     7     3     4 1   
     8     3    14 1   
     9     3    15 1   
    10     4     5 1   
    11     4    16 1   
    12     4    17 1   
    13     5     6 1   
    14     5    11 1   
    15     5    18 1   
    16     6    19 1   
    17     6    20 1   
    18     7     8 1   
    19     7    21 1   
    20     7    22 1   
    21     7    23 1   
    22     8     9 1   
    23     8    10 1   
    24     9    24 1   
    25     9    25 1   
    26     9    26 1   
    27    10    27 1   
    28    11    28 1   
    29    11    29 1   
@<TRIPOS>SUBSTRUCTURE
     1 UMW         1 TEMP              0 ****  ****    0 ROOT
