@<TRIPOS>MOLECULE
UMW
   29    29     1     0     0
SMALL
No Charge or Current Charge


@<TRIPOS>ATOM
      1 N1          41.3760    63.6110    44.4090 n3         1 UMW      -0.783600
      2 C4          41.9080    64.0510    43.0880 c3         1 UMW       0.177800
      3 C5          41.0320    64.7250    45.3240 c5         1 UMW       0.195800
      4 C6          40.4670    63.8650    46.5270 c5         1 UMW      -0.087400
      5 C7          39.6460    62.6530    45.8980 c5         1 UMW       0.138500
      6 C8          40.1580    62.7250    44.4000 c5         1 UMW       0.194800
      7 C1          43.3850    61.9340    42.8640 c3         1 UMW      -0.095100
      8 C2          42.5030    62.9630    42.1150 c3         1 UMW       0.178000
      9 C3          41.4100    62.2500    41.2790 c3         1 UMW      -0.095100
     10 O1          43.3570    63.6300    41.1720 oh         1 UMW      -0.663000
     11 N2          39.8670    61.3750    46.6100 n8         1 UMW      -0.987200
     12 H2          42.7080    64.7760    43.2930 h1         1 UMW       0.032200
     13 H3          41.1290    64.6070    42.5490 h1         1 UMW       0.032200
     14 H4          41.9010    65.3330    45.6100 h1         1 UMW       0.031200
     15 H5          40.2600    65.3800    44.8950 h1         1 UMW       0.031200
     16 H6          41.3020    63.4940    47.1320 hc         1 UMW       0.059700
     17 H7          39.8490    64.4720    47.1960 hc         1 UMW       0.059700
     18 H8          38.5660    62.8560    45.9310 h1         1 UMW       0.014700
     19 H9          39.3740    63.1520    43.7580 h1         1 UMW       0.044200
     20 H10         40.3820    61.7200    44.0190 h1         1 UMW       0.044200
     21 H11         42.7840    61.3280    43.5510 hc         1 UMW       0.041867
     22 H12         43.8760    61.2510    42.1590 hc         1 UMW       0.041867
     23 H13         44.1630    62.4380    43.4510 hc         1 UMW       0.041867
     24 H14         40.7770    61.6090    41.8980 hc         1 UMW       0.041867
     25 H15         40.7670    62.9810    40.7740 hc         1 UMW       0.041867
     26 H16         41.8650    61.6140    40.5100 hc         1 UMW       0.041867
     27 H17         44.1370    63.9540    41.6720 ho         1 UMW       0.435000
     28 H18         39.4970    61.4540    47.5640 hn         1 UMW       0.394500
     29 H19         39.2790    60.6470    46.1870 hn         1 UMW       0.394500
@<TRIPOS>BOND
     1     1     2 1   
     2     1     3 1   
     3     1     6 1   
     4     2     8 1   
     5     2    12 1   
     6     2    13 1   
     7     3     4 1   
     8     3    14 1   
     9     3    15 1   
    10     4     5 1   
    11     4    16 1   
    12     4    17 1   
    13     5     6 1   
    14     5    11 1   
    15     5    18 1   
    16     6    19 1   
    17     6    20 1   
    18     7     8 1   
    19     7    21 1   
    20     7    22 1   
    21     7    23 1   
    22     8     9 1   
    23     8    10 1   
    24     9    24 1   
    25     9    25 1   
    26     9    26 1   
    27    10    27 1   
    28    11    28 1   
    29    11    29 1   
@<TRIPOS>SUBSTRUCTURE
     1 UMW         1 TEMP              0 ****  ****    0 ROOT
