@<TRIPOS>MOLECULE
UMY
   50    53     1     0     0
SMALL
bcc


@<TRIPOS>ATOM
      1 CAH        457.2620     5.2140   121.2490 ca         1 UMY       0.159900
      2 CAI        457.6190     4.5980   122.4640 ca         1 UMY      -0.097000
      3 CAJ        458.5510     3.5270   122.3950 ca         1 UMY      -0.001000
      4 CAK        459.0690     3.0760   121.1510 ca         1 UMY      -0.110300
      5 CAL        458.6540     3.7240   120.0090 ca         1 UMY       0.175100
      6 CAM        457.7570     4.8120   120.0510 ca         1 UMY      -0.217000
      7 CAY        457.0910     5.0160   123.7060 ca         1 UMY      -0.096000
      8 CAZ        457.4670     4.4000   124.8620 ca         1 UMY      -0.110000
      9 CBA        458.3990     3.3390   124.8060 ca         1 UMY       0.004000
     10 CBB        458.9270     2.9140   123.6110 ca         1 UMY      -0.089000
     11 CBC        458.8020     2.6970   126.0150 cg         1 UMY       0.226800
     12 NBD        459.1240     2.1850   126.9960 n1         1 UMY      -0.348800
     13 C0P        456.1040     1.2860   121.1510 cc         1 UMY       0.070600
     14 C00        456.8880     3.5420   115.9940 ca         1 UMY      -0.203000
     15 C0D        455.2910     2.2960   117.9840 c3         1 UMY       0.115400
     16 C0E        454.6390     1.9720   119.3120 c3         1 UMY       0.108000
     17 C0K        455.1990    -0.3650   119.6730 c          1 UMY       0.829500
     18 C0N        456.6840    -1.0190   121.5620 c          1 UMY       0.737700
     19 C0O        456.7550     0.3860   121.9020 cd         1 UMY      -0.336200
     20 N0H        455.3360     0.9510   120.0730 n          1 UMY      -0.375000
     21 N0M        455.8880    -1.2660   120.4420 ns         1 UMY      -0.608500
     22 O0A        459.1780     3.2980   118.8350 os         1 UMY      -0.236200
     23 O0B        456.6290     2.6590   118.2410 os         1 UMY      -0.318900
     24 O0S        457.2320    -1.9280   122.1400 o          1 UMY      -0.592500
     25 C01        457.7090     4.1990   115.0850 ca         1 UMY      -0.090000
     26 C02        458.9860     4.5890   115.4430 ca         1 UMY      -0.149000
     27 C03        459.4510     4.3120   116.7220 ca         1 UMY      -0.096000
     28 C04        458.6450     3.6520   117.6280 ca         1 UMY       0.064100
     29 C05        457.3440     3.2650   117.2770 ca         1 UMY       0.121100
     30 C31        460.0330     1.9270   121.1030 c3         1 UMY      -0.041800
     31 F32        456.4040     6.2360   121.2920 f          1 UMY      -0.135900
     32 H1         457.4690     5.3410   119.1510 ha         1 UMY       0.164000
     33 H2         456.3810     5.8290   123.7450 ha         1 UMY       0.149000
     34 H3         457.0640     4.7160   125.8130 ha         1 UMY       0.149000
     35 H4         459.6430     2.1050   123.6120 ha         1 UMY       0.153000
     36 H5         456.1450     2.3430   121.3780 h4         1 UMY       0.160000
     37 H6         455.9000     3.2350   115.6790 ha         1 UMY       0.140000
     38 H7         454.7300     3.1240   117.5350 h1         1 UMY       0.058200
     39 H8         455.2430     1.4450   117.3000 h1         1 UMY       0.058200
     40 H9         454.6020     2.8700   119.9280 h1         1 UMY       0.073700
     41 H10        453.6120     1.6560   119.1310 h1         1 UMY       0.073700
     42 H11        457.3250     0.6930   122.7650 ha         1 UMY       0.173000
     43 H12        455.7990    -2.2320   120.1570 hn         1 UMY       0.339500
     44 H13        457.3380     4.3990   114.0890 ha         1 UMY       0.138000
     45 H14        459.6230     5.1030   114.7370 ha         1 UMY       0.142000
     46 H15        460.4510     4.5950   117.0230 ha         1 UMY       0.151000
     47 H16        460.9540     2.1620   121.6390 hc         1 UMY       0.052367
     48 H17        459.6060     1.0320   121.5580 hc         1 UMY       0.052367
     49 H18        460.3060     1.6670   120.0850 hc         1 UMY       0.052367
     50 O0Q        454.5220    -0.6870   118.7230 o          1 UMY      -0.637500
@<TRIPOS>BOND
     1     1     2 ar  
     2     1     6 ar  
     3     1    31 1   
     4     2     3 ar  
     5     2     7 ar  
     6     3     4 ar  
     7     3    10 ar  
     8     4     5 ar  
     9     4    30 1   
    10     5     6 ar  
    11     5    22 1   
    12     6    32 1   
    13     7     8 ar  
    14     7    33 1   
    15     8     9 ar  
    16     8    34 1   
    17     9    10 ar  
    18     9    11 1   
    19    10    35 1   
    20    11    12 3   
    21    13    19 2   
    22    13    20 1   
    23    13    36 1   
    24    14    25 ar  
    25    14    29 ar  
    26    14    37 1   
    27    15    16 1   
    28    15    23 1   
    29    15    38 1   
    30    15    39 1   
    31    16    20 1   
    32    16    40 1   
    33    16    41 1   
    34    17    20 1   
    35    17    21 1   
    36    17    50 2   
    37    18    19 1   
    38    18    21 1   
    39    18    24 2   
    40    19    42 1   
    41    21    43 1   
    42    22    28 1   
    43    23    29 1   
    44    25    26 ar  
    45    25    44 1   
    46    26    27 ar  
    47    26    45 1   
    48    27    28 ar  
    49    27    46 1   
    50    28    29 ar  
    51    30    47 1   
    52    30    48 1   
    53    30    49 1   
@<TRIPOS>SUBSTRUCTURE
     1 UMY         1 TEMP              0 ****  ****    0 ROOT
