@<TRIPOS>MOLECULE
UMY
   50    53     1     0     0
SMALL
No Charge or Current Charge


@<TRIPOS>ATOM
      1 CAH        457.2800     5.3440   121.2840 ca         1 UMY       0.195000
      2 CAI        457.6170     4.6630   122.4710 ca         1 UMY      -0.097000
      3 CAJ        458.5550     3.6020   122.4310 ca         1 UMY      -0.001000
      4 CAK        459.1390     3.2200   121.1900 ca         1 UMY      -0.110300
      5 CAL        458.7610     3.9030   120.0080 ca         1 UMY       0.175100
      6 CAM        457.8520     4.9730   120.0660 ca         1 UMY      -0.199000
      7 CAY        457.0260     5.0380   123.6970 ca         1 UMY      -0.078000
      8 CAZ        457.3590     4.3650   124.8820 ca         1 UMY      -0.092000
      9 CBA        458.2890     3.3130   124.8550 ca         1 UMY       0.004000
     10 CBB        458.8840     2.9360   123.6370 ca         1 UMY      -0.071000
     11 CBC        458.6310     2.6220   126.0690 cg         1 UMY       0.316000
     12 NBD        458.9140     2.0550   127.0500 n1         1 UMY      -0.438000
     13 C0P        456.2880     1.1770   121.0940 cc         1 UMY       0.020600
     14 C00        456.8840     3.5840   115.9870 ca         1 UMY      -0.185000
     15 C0D        455.2620     2.3760   118.0570 c3         1 UMY       0.138600
     16 C0E        454.6270     1.9440   119.3960 c3         1 UMY       0.108000
     17 C0K        455.0340    -0.4790   119.8090 c          1 UMY       0.620000
     18 C0N        456.6150    -1.2490   121.5090 c          1 UMY       0.595200
     19 C0O        456.9020     0.1590   121.7860 cd         1 UMY      -0.386200
     20 N0H        455.3560     0.8630   120.1070 n          1 UMY      -0.308000
     21 N0M        455.6930    -1.4270   120.5290 ns         1 UMY      -0.474500
     22 O0A        459.3220     3.5330   118.8020 os         1 UMY      -0.236200
     23 O0B        456.6190     2.8050   118.2880 os         1 UMY      -0.342100
     24 O0S        457.1380    -2.1800   122.0930 o          1 UMY      -0.517000
     25 C01        457.6900     4.1560   114.9880 ca         1 UMY      -0.072000
     26 C02        459.0160     4.5160   115.2730 ca         1 UMY      -0.131000
     27 C03        459.5390     4.3050   116.5590 ca         1 UMY      -0.078000
     28 C04        458.7370     3.7460   117.5700 ca         1 UMY       0.064100
     29 C05        457.3960     3.3700   117.2890 ca         1 UMY       0.121100
     30 C31        460.1620     2.0770   121.1220 c3         1 UMY      -0.041800
     31 F32        456.3950     6.3670   121.3020 f          1 UMY      -0.171000
     32 H1         457.5790     5.5190   119.1680 ha         1 UMY       0.146000
     33 H2         456.3040     5.8510   123.7400 ha         1 UMY       0.131000
     34 H3         456.8940     4.6640   125.8190 ha         1 UMY       0.131000
     35 H4         459.6000     2.1180   123.6470 ha         1 UMY       0.135000
     36 H5         456.4410     2.2430   121.2350 h4         1 UMY       0.210000
     37 H6         455.8660     3.3110   115.7260 ha         1 UMY       0.122000
     38 H7         454.6610     3.1950   117.6420 h1         1 UMY       0.058200
     39 H8         455.2380     1.5350   117.3520 h1         1 UMY       0.058200
     40 H9         454.5690     2.8230   120.0510 h1         1 UMY       0.073700
     41 H10        453.5920     1.6280   119.2110 h1         1 UMY       0.073700
     42 H11        457.6260     0.3400   122.5710 ha         1 UMY       0.223000
     43 H12        455.4620    -2.3820   120.3090 hn         1 UMY       0.339500
     44 H13        457.2880     4.3170   113.9900 ha         1 UMY       0.120000
     45 H14        459.6410     4.9530   114.4970 ha         1 UMY       0.124000
     46 H15        460.5690     4.5760   116.7770 ha         1 UMY       0.133000
     47 H16        461.0310     2.2910   121.7540 hc         1 UMY       0.052367
     48 H17        459.7220     1.1320   121.4620 hc         1 UMY       0.052367
     49 H18        460.5480     1.8960   120.1130 hc         1 UMY       0.052367
     50 O0Q        454.2200    -0.8000   118.9590 o          1 UMY      -0.562000
@<TRIPOS>BOND
     1     1     2 ar  
     2     1     6 ar  
     3     1    31 1   
     4     2     3 ar  
     5     2     7 ar  
     6     3     4 ar  
     7     3    10 ar  
     8     4     5 ar  
     9     4    30 1   
    10     5     6 ar  
    11     5    22 1   
    12     6    32 1   
    13     7     8 ar  
    14     7    33 1   
    15     8     9 ar  
    16     8    34 1   
    17     9    10 ar  
    18     9    11 1   
    19    10    35 1   
    20    11    12 3   
    21    13    19 2   
    22    13    20 1   
    23    13    36 1   
    24    14    25 ar  
    25    14    29 ar  
    26    14    37 1   
    27    15    16 1   
    28    15    23 1   
    29    15    38 1   
    30    15    39 1   
    31    16    20 1   
    32    16    40 1   
    33    16    41 1   
    34    17    20 1   
    35    17    21 1   
    36    17    50 2   
    37    18    19 1   
    38    18    21 1   
    39    18    24 2   
    40    19    42 1   
    41    21    43 1   
    42    22    28 1   
    43    23    29 1   
    44    25    26 ar  
    45    25    44 1   
    46    26    27 ar  
    47    26    45 1   
    48    27    28 ar  
    49    27    46 1   
    50    28    29 ar  
    51    30    47 1   
    52    30    48 1   
    53    30    49 1   
@<TRIPOS>SUBSTRUCTURE
     1 UMY         1 TEMP              0 ****  ****    0 ROOT
