@<TRIPOS>MOLECULE
UMZ
   30    32     1     0     0
SMALL
No Charge or Current Charge


@<TRIPOS>ATOM
      1 N1         -14.2030    16.5630     4.3030 nb         1 UMZ      -0.177000
      2 C7         -10.1440    17.6250     3.4370 c3         1 UMZ      -0.133700
      3 C8         -11.5930    17.2780     3.7380 ca         1 UMZ       0.125300
      4 N2         -11.8390    16.0780     4.3060 nb         1 UMZ      -0.183000
      5 C9         -12.6410    18.1650     3.4280 ca         1 UMZ      -0.216000
      6 C1          -4.6140    15.9270     2.7010 ca         1 UMZ      -0.091000
      7 C5          -8.3150    17.6210     1.6760 cc         1 UMZ      -0.143400
      8 C6          -9.7520    17.2920     1.9830 c3         1 UMZ       0.005800
      9 N3          -6.4200    18.6430     0.8790 na         1 UMZ      -0.224700
     10 C4          -7.1540    16.9060     2.1280 ca         1 UMZ      -0.096800
     11 C3          -7.0490    15.7540     2.9220 ca         1 UMZ      -0.059000
     12 C2          -5.7570    15.2650     3.2080 ca         1 UMZ      -0.142000
     13 C10        -13.9520    17.7590     3.7330 ca         1 UMZ       0.104900
     14 C11        -13.1320    15.7820     4.5600 ca         1 UMZ       0.119900
     15 C12         -7.8360    18.6800     0.9110 cd         1 UMZ      -0.158100
     16 C13         -6.0520    17.5450     1.6340 ca         1 UMZ      -0.047200
     17 C14         -4.7560    17.0820     1.9020 ca         1 UMZ      -0.131000
     18 H6          -9.4750    17.0930     4.1240 hc         1 UMZ       0.062700
     19 H7          -9.9740    18.6940     3.6150 hc         1 UMZ       0.062700
     20 H8         -12.4480    19.1300     2.9670 ha         1 UMZ       0.133000
     21 H5         -10.4120    17.8400     1.2980 hc         1 UMZ       0.051700
     22 H4          -9.9310    16.2250     1.7970 hc         1 UMZ       0.051700
     23 H12         -5.8000    19.2900     0.4000 hn         1 UMZ       0.350000
     24 H3          -7.9340    15.2510     3.3040 ha         1 UMZ       0.120000
     25 H2          -5.6390    14.3740     3.8210 ha         1 UMZ       0.111000
     26 H9         -14.8090    18.3960     3.5210 h4         1 UMZ       0.023100
     27 H10        -13.3310    14.8150     5.0190 h5         1 UMZ       0.049100
     28 H11         -8.3970    19.4550     0.3950 h4         1 UMZ       0.210000
     29 H13         -3.8840    17.5960     1.5060 ha         1 UMZ       0.112000
     30 H1          -3.6210    15.5440     2.9260 ha         1 UMZ       0.109000
@<TRIPOS>BOND
     1     1    13 ar  
     2     1    14 ar  
     3     2     3 1   
     4     2     8 1   
     5     2    18 1   
     6     2    19 1   
     7     3     4 ar  
     8     3     5 ar  
     9     4    14 ar  
    10     5    13 ar  
    11     5    20 1   
    12     6    12 ar  
    13     6    17 ar  
    14     6    30 1   
    15     7     8 1   
    16     7    10 1   
    17     7    15 2   
    18     8    21 1   
    19     8    22 1   
    20     9    15 1   
    21     9    16 1   
    22     9    23 1   
    23    10    11 ar  
    24    10    16 ar  
    25    11    12 ar  
    26    11    24 1   
    27    12    25 1   
    28    13    26 1   
    29    14    27 1   
    30    15    28 1   
    31    16    17 ar  
    32    17    29 1   
@<TRIPOS>SUBSTRUCTURE
     1 UMZ         1 TEMP              0 ****  ****    0 ROOT
