@<TRIPOS>MOLECULE
UMZ
   30    32     1     0     0
SMALL
bcc


@<TRIPOS>ATOM
      1 N1         -14.1250    16.5190     4.2230 nb         1 UMZ      -0.703000
      2 C7         -10.1630    17.7130     3.3620 c3         1 UMZ      -0.133700
      3 C8         -11.5740    17.3360     3.6870 ca         1 UMZ       0.453600
      4 N2         -11.8260    16.0470     3.9170 nb         1 UMZ      -0.709000
      5 C9         -12.6020    18.2700     3.7160 ca         1 UMZ      -0.364600
      6 C1          -4.6340    16.0030     2.7910 ca         1 UMZ      -0.109000
      7 C5          -8.3480    17.5480     1.6270 cc         1 UMZ      -0.143400
      8 C6          -9.7770    17.2640     1.9430 c3         1 UMZ       0.005800
      9 N3          -6.4920    18.4970     0.8000 na         1 UMZ      -0.174400
     10 C4          -7.2020    16.8680     2.1570 ca         1 UMZ      -0.096800
     11 C3          -7.0370    15.7850     3.0300 ca         1 UMZ      -0.077000
     12 C2          -5.7580    15.3630     3.3390 ca         1 UMZ      -0.160000
     13 C10        -13.8740    17.8030     3.9940 ca         1 UMZ       0.433200
     14 C11        -13.0790    15.7080     4.1700 ca         1 UMZ       0.645900
     15 C12         -7.8590    18.5280     0.8100 cd         1 UMZ      -0.108100
     16 C13         -6.0580    17.4930     1.6140 ca         1 UMZ      -0.047200
     17 C14         -4.7660    17.0710     1.9240 ca         1 UMZ      -0.149000
     18 H6          -9.4940    17.2430     4.0860 hc         1 UMZ       0.062700
     19 H7         -10.0350    18.7930     3.4490 hc         1 UMZ       0.062700
     20 H8         -12.4180    19.3190     3.5310 ha         1 UMZ       0.151000
     21 H5         -10.4240    17.7660     1.2200 hc         1 UMZ       0.051700
     22 H4          -9.9780    16.1930     1.8460 hc         1 UMZ       0.051700
     23 H12         -5.9030    19.1170     0.2690 hn         1 UMZ       0.299700
     24 H3          -7.8980    15.2850     3.4570 ha         1 UMZ       0.138000
     25 H2          -5.6160    14.5280     4.0120 ha         1 UMZ       0.129000
     26 H9         -14.7180    18.4840     4.0340 h4         1 UMZ       0.023100
     27 H10        -13.2690    14.6560     4.3570 h5         1 UMZ       0.049100
     28 H11         -8.3960    19.2580     0.2250 h4         1 UMZ       0.160000
     29 H13         -3.8970    17.5600     1.5010 ha         1 UMZ       0.130000
     30 H1          -3.6440    15.6510     3.0510 ha         1 UMZ       0.127000
@<TRIPOS>BOND
     1     1    13 ar  
     2     1    14 ar  
     3     2     3 1   
     4     2     8 1   
     5     2    18 1   
     6     2    19 1   
     7     3     4 ar  
     8     3     5 ar  
     9     4    14 ar  
    10     5    13 ar  
    11     5    20 1   
    12     6    12 ar  
    13     6    17 ar  
    14     6    30 1   
    15     7     8 1   
    16     7    10 1   
    17     7    15 2   
    18     8    21 1   
    19     8    22 1   
    20     9    15 1   
    21     9    16 1   
    22     9    23 1   
    23    10    11 ar  
    24    10    16 ar  
    25    11    12 ar  
    26    11    24 1   
    27    12    25 1   
    28    13    26 1   
    29    14    27 1   
    30    15    28 1   
    31    16    17 ar  
    32    17    29 1   
@<TRIPOS>SUBSTRUCTURE
     1 UMZ         1 TEMP              0 ****  ****    0 ROOT
