@<TRIPOS>MOLECULE
UN1
   20    19     1     0     0
SMALL
No Charge or Current Charge


@<TRIPOS>ATOM
      1 C1          -0.1490     0.0520    -3.3800 c          1 UN1       0.714000
      2 O1           0.8320    -0.4410    -3.9150 o          1 UN1      -0.761500
      3 O2          -0.7590     1.0050    -3.8410 o          1 UN1      -0.761500
      4 C2          -0.6100    -0.5240    -2.0260 c3         1 UN1      -0.198400
      5 C3          -0.4250     0.0700     3.0900 c          1 UN1       0.722000
      6 C4           0.3250     0.4240     1.7340 c3         1 UN1       0.023500
      7 C5          -0.3160    -0.3270     0.5350 c3         1 UN1      -0.102400
      8 C6           0.1040     0.2030    -0.8600 c3         1 UN1      -0.060400
      9 N4           1.8210     0.2350     1.7240 n8         1 UN1      -0.999200
     10 H1C1        -0.3240    -1.5800    -1.9410 hc         1 UN1       0.012200
     11 H1C2        -1.6830    -0.3450    -1.8790 hc         1 UN1       0.012200
     12 H4           0.1470     1.4950     1.5650 h1         1 UN1       0.040700
     13 H5C1        -0.0860    -1.3980     0.6070 hc         1 UN1       0.029700
     14 H5C2        -1.4070    -0.2390     0.6210 hc         1 UN1       0.029700
     15 H6C1        -0.1160     1.2760    -0.9170 hc         1 UN1       0.027200
     16 H6C2         1.1880     0.0920    -0.9860 hc         1 UN1       0.027200
     17 H4N1         2.0260    -0.7430     1.9630 hn         1 UN1       0.375000
     18 H4N2         2.1590     0.3290     0.7600 hn         1 UN1       0.375000
     19 O58         -0.2970    -1.0560     3.5580 o          1 UN1      -0.752500
     20 O5          -1.0440     0.9590     3.6620 o          1 UN1      -0.752500
@<TRIPOS>BOND
     1     1     2 1   
     2     1     3 1   
     3     1     4 1   
     4     4     8 1   
     5     4    10 1   
     6     4    11 1   
     7     5     6 1   
     8     5    19 1   
     9     5    20 1   
    10     6     7 1   
    11     6     9 1   
    12     6    12 1   
    13     7     8 1   
    14     7    13 1   
    15     7    14 1   
    16     8    15 1   
    17     8    16 1   
    18     9    17 1   
    19     9    18 1   
@<TRIPOS>SUBSTRUCTURE
     1 UN1         1 TEMP              0 ****  ****    0 ROOT
