@<TRIPOS>MOLECULE
UN1
   20    19     1     0     0
SMALL
bcc


@<TRIPOS>ATOM
      1 C1          -0.2290     0.0860    -3.4020 c          1 UN1       0.924600
      2 O1           0.8310     0.7280    -3.5330 o          1 UN1      -0.866800
      3 O2          -0.9910    -0.2760    -4.3250 o          1 UN1      -0.866800
      4 C2          -0.6540    -0.3240    -1.9810 c3         1 UN1      -0.198400
      5 C3          -0.3030     0.0720     3.0190 c          1 UN1       0.932600
      6 C4           0.4590     0.3750     1.7120 c3         1 UN1       0.023500
      7 C5          -0.3490    -0.1810     0.5270 c3         1 UN1      -0.102400
      8 C6           0.1670     0.2530    -0.8400 c3         1 UN1      -0.060400
      9 N4           1.8280    -0.1130     1.7880 n8         1 UN1      -0.888800
     10 H1C1        -0.6320    -1.4200    -1.9250 hc         1 UN1       0.012200
     11 H1C2        -1.7100    -0.0600    -1.8480 hc         1 UN1       0.012200
     12 H4           0.4930     1.4660     1.5960 h1         1 UN1       0.040700
     13 H5C1        -0.3580    -1.2770     0.5890 hc         1 UN1       0.029700
     14 H5C2        -1.3900     0.1400     0.6290 hc         1 UN1       0.029700
     15 H6C1         0.1580     1.3470    -0.8920 hc         1 UN1       0.027200
     16 H6C2         1.2120    -0.0430    -0.9670 hc         1 UN1       0.027200
     17 H4N1         1.8010    -1.0790     2.0910 hn         1 UN1       0.319800
     18 H4N2         2.2480    -0.1140     0.8670 hn         1 UN1       0.319800
     19 O58          0.1260    -0.8550     3.7350 o          1 UN1      -0.857800
     20 O5          -1.3210     0.7610     3.2340 o          1 UN1      -0.857800
@<TRIPOS>BOND
     1     1     2 1   
     2     1     3 1   
     3     1     4 1   
     4     4     8 1   
     5     4    10 1   
     6     4    11 1   
     7     5     6 1   
     8     5    19 1   
     9     5    20 1   
    10     6     7 1   
    11     6     9 1   
    12     6    12 1   
    13     7     8 1   
    14     7    13 1   
    15     7    14 1   
    16     8    15 1   
    17     8    16 1   
    18     9    17 1   
    19     9    18 1   
@<TRIPOS>SUBSTRUCTURE
     1 UN1         1 TEMP              0 ****  ****    0 ROOT
