@<TRIPOS>MOLECULE
UN3
   27    28     1     0     0
SMALL
abcg2


@<TRIPOS>ATOM
      1 O3          42.3240    16.9240    11.7750 o          1 UN3      -0.698200
      2 S1          42.6450    15.5860    12.2600 s6         1 UN3       1.370700
      3 O1          44.0800    15.3160    12.3470 o          1 UN3      -0.698200
      4 O2          41.9000    14.5090    11.6210 o          1 UN3      -0.698200
      5 N3          42.0350    15.6390    13.8690 nu         1 UN3      -0.863100
      6 C5          42.3580    14.5700    14.7070 cc         1 UN3       0.248000
      7 N2          43.3580    14.6130    15.6310 na         1 UN3       0.096800
      8 C4          44.1970    15.7430    15.9750 c3         1 UN3       0.073900
      9 N1          43.4660    13.4510    16.3070 nc         1 UN3      -0.554800
     10 C6          41.8110    13.3030    14.7720 cd         1 UN3      -0.219000
     11 C3          42.5420    12.6360    15.7790 cd         1 UN3       0.291500
     12 C2          42.4010    11.2500    16.2400 ca         1 UN3      -0.081500
     13 C7          41.2800    10.4920    15.8850 ca         1 UN3      -0.096500
     14 C8          41.1520     9.1730    16.3040 ca         1 UN3      -0.122500
     15 C9          42.1410     8.5860    17.0880 ca         1 UN3      -0.128000
     16 C10         43.2600     9.3330    17.4500 ca         1 UN3      -0.122500
     17 C1          43.3900    10.6500    17.0300 ca         1 UN3      -0.096500
     18 HN3         42.2510    16.5480    14.2640 hn         1 UN3       0.445000
     19 H41         43.6840    16.4180    16.6630 h1         1 UN3       0.051367
     20 H42         45.0970    15.3600    16.4480 h1         1 UN3       0.051367
     21 H43         44.4670    16.2840    15.0700 h1         1 UN3       0.051367
     22 H6          41.0080    12.9260    14.1630 ha         1 UN3       0.157000
     23 H7          40.5000    10.9370    15.2810 ha         1 UN3       0.123000
     24 H8          40.2760     8.6030    16.0190 ha         1 UN3       0.100000
     25 H9          42.0420     7.5580    17.4140 ha         1 UN3       0.097000
     26 H10         44.0370     8.8850    18.0560 ha         1 UN3       0.100000
     27 H1          44.2660    11.2210    17.3050 ha         1 UN3       0.123000
@<TRIPOS>BOND
     1     1     2 1   
     2     2     3 1   
     3     2     4 1   
     4     2     5 1   
     5     5     6 1   
     6     5    18 1   
     7     6     7 1   
     8     6    10 2   
     9     7     8 1   
    10     7     9 1   
    11     8    19 1   
    12     8    20 1   
    13     8    21 1   
    14     9    11 2   
    15    10    11 1   
    16    10    22 1   
    17    11    12 1   
    18    12    13 ar  
    19    12    17 ar  
    20    13    14 ar  
    21    13    23 1   
    22    14    15 ar  
    23    14    24 1   
    24    15    16 ar  
    25    15    25 1   
    26    16    17 ar  
    27    16    26 1   
    28    17    27 1   
@<TRIPOS>SUBSTRUCTURE
     1 UN3         1 TEMP              0 ****  ****    0 ROOT
