@<TRIPOS>MOLECULE
UN3
   27    28     1     0     0
SMALL
No Charge or Current Charge


@<TRIPOS>ATOM
      1 O3          42.1220    16.8780    11.8230 o          1 UN3      -0.698200
      2 S1          41.9010    15.5060    12.2830 s6         1 UN3       1.370700
      3 O1          42.8850    14.5180    11.8370 o          1 UN3      -0.698200
      4 O2          40.5070    15.0580    12.3330 o          1 UN3      -0.698200
      5 N3          42.2700    15.6760    13.8740 nu         1 UN3      -0.863100
      6 C5          42.5990    14.6170    14.6910 cc         1 UN3       0.248000
      7 N2          43.5460    14.6460    15.7180 na         1 UN3       0.096800
      8 C4          44.3870    15.7920    16.1020 c3         1 UN3       0.073900
      9 N1          43.6550    13.4470    16.4020 nc         1 UN3      -0.554800
     10 C6          42.0920    13.3580    14.7570 cd         1 UN3      -0.219000
     11 C3          42.7630    12.6760    15.7990 cd         1 UN3       0.291500
     12 C2          42.5310    11.2740    16.2250 ca         1 UN3      -0.081500
     13 C7          41.7220    10.4080    15.4530 ca         1 UN3      -0.096500
     14 C8          41.5150     9.0750    15.8480 ca         1 UN3      -0.122500
     15 C9          42.1150     8.5840    17.0170 ca         1 UN3      -0.128000
     16 C10         42.9280     9.4270    17.7900 ca         1 UN3      -0.122500
     17 C1          43.1380    10.7600    17.3960 ca         1 UN3      -0.096500
     18 HN3         42.9260    16.4370    13.8490 hn         1 UN3       0.445000
     19 H41         43.7480    16.6550    16.3240 h1         1 UN3       0.051367
     20 H42         44.9790    15.5440    16.9920 h1         1 UN3       0.051367
     21 H43         45.0630    16.0410    15.2760 h1         1 UN3       0.051367
     22 H6          41.3100    12.9630    14.1230 ha         1 UN3       0.157000
     23 H7          41.2510    10.7580    14.5380 ha         1 UN3       0.123000
     24 H8          40.8880     8.4220    15.2450 ha         1 UN3       0.100000
     25 H9          41.9540     7.5520    17.3220 ha         1 UN3       0.097000
     26 H10         43.3980     9.0480    18.6940 ha         1 UN3       0.100000
     27 H1          43.7730    11.3940    18.0110 ha         1 UN3       0.123000
@<TRIPOS>BOND
     1     1     2 1   
     2     2     3 1   
     3     2     4 1   
     4     2     5 1   
     5     5     6 1   
     6     5    18 1   
     7     6     7 1   
     8     6    10 2   
     9     7     8 1   
    10     7     9 1   
    11     8    19 1   
    12     8    20 1   
    13     8    21 1   
    14     9    11 2   
    15    10    11 1   
    16    10    22 1   
    17    11    12 1   
    18    12    13 ar  
    19    12    17 ar  
    20    13    14 ar  
    21    13    23 1   
    22    14    15 ar  
    23    14    24 1   
    24    15    16 ar  
    25    15    25 1   
    26    16    17 ar  
    27    16    26 1   
    28    17    27 1   
@<TRIPOS>SUBSTRUCTURE
     1 UN3         1 TEMP              0 ****  ****    0 ROOT
