@<TRIPOS>MOLECULE
UN4
   30    32     1     0     0
SMALL
No Charge or Current Charge


@<TRIPOS>ATOM
      1 C2           1.9530     0.3490    -2.4510 ca         1 UN4       0.429900
      2 C4          -0.1440     0.2580    -3.3070 ca         1 UN4       0.158500
      3 C5          -0.6320    -0.0890    -2.0730 ca         1 UN4      -0.101600
      4 C9          -0.1310    -1.0750     2.6230 c5         1 UN4       0.108700
      5 C3           0.7200     0.2390     4.4510 c5         1 UN4      -0.176400
      6 C7           0.7050    -1.2220     3.9360 c5         1 UN4      -0.087400
      7 N9          -1.2080     0.3060    -4.1590 na         1 UN4      -0.419300
      8 N3           1.1610     0.4850    -3.5270 nb         1 UN4      -0.277000
      9 N2           3.2710     0.5690    -2.6440 nv         1 UN4      -1.052900
     10 N1           1.6010     0.0150    -1.2030 nb         1 UN4      -0.359000
     11 C6           0.2830    -0.2100    -0.9980 ca         1 UN4       0.458300
     12 O6          -0.1880    -0.5590     0.2530 os         1 UN4      -0.435300
     13 C60          0.7080    -0.6860     1.3760 c3         1 UN4       0.146600
     14 C14         -0.6820     0.7220     4.1080 c          1 UN4       0.561000
     15 N7          -2.0120    -0.2730    -2.0890 nc         1 UN4      -0.513100
     16 C8          -2.3210    -0.0230    -3.3740 cd         1 UN4       0.389700
     17 O14         -1.4520     1.3990     4.7680 o          1 UN4      -0.548000
     18 N15         -1.0730    -0.0200     3.0270 ns         1 UN4      -0.509900
     19 H4          -0.6490    -2.0170     2.3960 h1         1 UN4       0.073700
     20 H3'1         0.9460     0.3650     5.5150 hc         1 UN4       0.076700
     21 H3'2         1.4350     0.8140     3.8530 hc         1 UN4       0.076700
     22 H2'1         0.1960    -1.8820     4.6490 hc         1 UN4       0.058700
     23 H2'2         1.7070    -1.6330     3.7680 hc         1 UN4       0.058700
     24 H9          -1.2060     0.5310    -5.1450 hn         1 UN4       0.369000
     25 H2N1         3.9180     0.2550    -1.9260 hn         1 UN4       0.493500
     26 H2N2         3.6220     0.5930    -3.5980 hn         1 UN4       0.493500
     27 H601         1.4560    -1.4680     1.1890 h1         1 UN4       0.058700
     28 H602         1.2340     0.2590     1.5630 h1         1 UN4       0.058700
     29 H8          -3.3170    -0.0610    -3.8020 h5         1 UN4       0.067800
     30 H15         -2.0210     0.0830     2.6860 hn         1 UN4       0.340500
@<TRIPOS>BOND
     1     1     8 ar  
     2     1     9 1   
     3     1    10 ar  
     4     2     3 ar  
     5     2     7 1   
     6     2     8 ar  
     7     3    11 ar  
     8     3    15 1   
     9     4     6 1   
    10     4    13 1   
    11     4    18 1   
    12     4    19 1   
    13     5     6 1   
    14     5    14 1   
    15     5    20 1   
    16     5    21 1   
    17     6    22 1   
    18     6    23 1   
    19     7    16 1   
    20     7    24 1   
    21     9    25 1   
    22     9    26 1   
    23    10    11 ar  
    24    11    12 1   
    25    12    13 1   
    26    13    27 1   
    27    13    28 1   
    28    14    17 2   
    29    14    18 1   
    30    15    16 2   
    31    16    29 1   
    32    18    30 1   
@<TRIPOS>SUBSTRUCTURE
     1 UN4         1 TEMP              0 ****  ****    0 ROOT
