@<TRIPOS>MOLECULE
UN4
   30    32     1     0     0
SMALL
bcc


@<TRIPOS>ATOM
      1 C2           1.9050     0.2810    -2.3610 ca         1 UN4       0.955900
      2 C4          -0.1540     0.2790    -3.1630 ca         1 UN4       0.486800
      3 C5          -0.7080    -0.1220    -1.9490 ca         1 UN4      -0.232200
      4 C9          -0.0600    -1.1530     2.5880 c5         1 UN4       0.108700
      5 C3           0.6320     0.2880     4.4010 c5         1 UN4      -0.176400
      6 C7           0.8350    -1.1160     3.8370 c5         1 UN4      -0.087400
      7 N9          -1.2160     0.4010    -3.9990 na         1 UN4      -0.369000
      8 N3           1.1300     0.4900    -3.4210 nb         1 UN4      -0.803000
      9 N2           3.2290     0.5090    -2.4960 nv         1 UN4      -0.942500
     10 N1           1.4980    -0.1070    -1.1340 nb         1 UN4      -0.885000
     11 C6           0.2200    -0.3100    -0.9190 ca         1 UN4       0.786600
     12 O6          -0.2120    -0.6930     0.2690 os         1 UN4      -0.412100
     13 C60          0.7260    -0.8020     1.3380 c3         1 UN4       0.123400
     14 C14         -0.7290     0.7050     3.8800 c          1 UN4       0.703500
     15 N7          -2.0740    -0.2390    -2.0470 nc         1 UN4      -0.513100
     16 C8          -2.3320     0.0810    -3.2780 cd         1 UN4       0.389700
     17 O14         -1.3960     1.6530     4.2560 o          1 UN4      -0.623500
     18 N15         -1.0650    -0.1590     2.9030 ns         1 UN4      -0.576900
     19 H4          -0.5270    -2.1320     2.4590 h1         1 UN4       0.073700
     20 H3'1         0.6670     0.3350     5.4890 hc         1 UN4       0.076700
     21 H3'2         1.3740     0.9970     4.0230 hc         1 UN4       0.076700
     22 H2'1         0.4890    -1.8620     4.5520 hc         1 UN4       0.058700
     23 H2'2         1.8750    -1.3430     3.6060 hc         1 UN4       0.058700
     24 H9          -1.1930     0.6790    -4.9680 hn         1 UN4       0.318700
     25 H2N1         3.8500     0.1500    -1.7920 hn         1 UN4       0.438300
     26 H2N2         3.6050     0.5950    -3.4250 hn         1 UN4       0.438300
     27 H601         1.4580    -1.5860     1.1290 h1         1 UN4       0.058700
     28 H602         1.2650     0.1410     1.4650 h1         1 UN4       0.058700
     29 H8          -3.3130     0.1040    -3.7270 h5         1 UN4       0.067800
     30 H15         -1.8970    -0.0390     2.3480 hn         1 UN4       0.340500
@<TRIPOS>BOND
     1     1     8 ar  
     2     1     9 1   
     3     1    10 ar  
     4     2     3 ar  
     5     2     7 1   
     6     2     8 ar  
     7     3    11 ar  
     8     3    15 1   
     9     4     6 1   
    10     4    13 1   
    11     4    18 1   
    12     4    19 1   
    13     5     6 1   
    14     5    14 1   
    15     5    20 1   
    16     5    21 1   
    17     6    22 1   
    18     6    23 1   
    19     7    16 1   
    20     7    24 1   
    21     9    25 1   
    22     9    26 1   
    23    10    11 ar  
    24    11    12 1   
    25    12    13 1   
    26    13    27 1   
    27    13    28 1   
    28    14    17 2   
    29    14    18 1   
    30    15    16 2   
    31    16    29 1   
    32    18    30 1   
@<TRIPOS>SUBSTRUCTURE
     1 UN4         1 TEMP              0 ****  ****    0 ROOT
