@<TRIPOS>MOLECULE
UN5
   56    58     1     0     0
SMALL
abcg2


@<TRIPOS>ATOM
      1 O8          42.7330    11.9920    19.8390 o          1 UN5      -0.649100
      2 C9          42.1300    11.7430    18.7920 c          1 UN5       0.601100
      3 N4          40.8950    12.1860    18.5390 ns         1 UN5      -0.482900
      4 C20         40.1410    12.9860    19.4880 c3         1 UN5       0.101300
      5 C8          42.8220    10.9150    17.7020 c6         1 UN5       0.037700
      6 N2          41.9200    10.4600    16.6410 n          1 UN5      -0.428800
      7 C11         42.0010    11.0720    15.3000 c6         1 UN5       0.151300
      8 C6          42.4450    12.5070    15.3650 ca         1 UN5      -0.077300
      9 C2          41.8710    13.4780    14.5550 ca         1 UN5      -0.131000
     10 C5          42.3300    14.7990    14.6120 ca         1 UN5       0.353000
     11 N1          41.7530    15.8220    13.8390 nu         1 UN5      -0.888100
     12 S1          41.2830    15.5910    12.2190 s6         1 UN5       1.378700
     13 O3          41.0940    16.9670    11.7710 o          1 UN5      -0.700867
     14 O2          42.3710    14.8900    11.5360 o          1 UN5      -0.700867
     15 O1          40.0550    14.8040    12.2780 o          1 UN5      -0.700867
     16 C4          43.3530    15.1210    15.5090 ca         1 UN5      -0.188000
     17 C3          43.4690    12.8290    16.2560 ca         1 UN5      -0.147300
     18 C7          43.9920    11.7160    17.1120 c6         1 UN5      -0.018100
     19 C1          43.9050    14.1470    16.3300 ca         1 UN5      -0.070000
     20 C10         41.1760     9.3460    16.8920 c          1 UN5       0.588100
     21 O4          41.1740     8.8260    18.0090 o          1 UN5      -0.622100
     22 C12         40.3490     8.7860    15.7490 c3         1 UN5      -0.150400
     23 C13         39.6420     7.4810    16.1160 c3         1 UN5      -0.013100
     24 C14         38.8290     6.9430    14.9660 ca         1 UN5      -0.066300
     25 C16         39.4490     6.2670    13.9110 ca         1 UN5      -0.176000
     26 C19         38.6880     5.8040    12.8450 ca         1 UN5      -0.083000
     27 C15         37.3110     5.9940    12.8060 ca         1 UN5      -0.152000
     28 C18         36.6770     6.6680    13.8560 ca         1 UN5       0.357000
     29 C17         37.4530     7.1400    14.9230 ca         1 UN5      -0.183000
     30 N3          35.2870     6.8460    13.9080 nu         1 UN5      -0.902100
     31 S2          34.3000     6.9800    12.5340 s6         1 UN5       1.390700
     32 O5          34.2920     5.6490    11.9340 o          1 UN5      -0.707200
     33 O6          34.8890     7.9930    11.6590 o          1 UN5      -0.707200
     34 O7          33.0250     7.3810    13.1210 o          1 UN5      -0.707200
     35 HN4         40.4620    11.9300    17.6670 hn         1 UN5       0.333500
     36 H201        40.6800    13.9010    19.7350 h1         1 UN5       0.035033
     37 H202        39.1860    13.2440    19.0380 h1         1 UN5       0.035033
     38 H203        39.9640    12.4300    20.4100 h1         1 UN5       0.035033
     39 H8          43.2100    10.0360    18.2140 h1         1 UN5       0.086700
     40 H111        41.0280    11.0130    14.8210 h1         1 UN5       0.058700
     41 H112        42.7060    10.4990    14.6840 h1         1 UN5       0.058700
     42 H2          41.0650    13.2190    13.8830 ha         1 UN5       0.157000
     43 HN1         42.2410    16.7050    13.9190 hn         1 UN5       0.454000
     44 H4          43.7080    16.1440    15.5640 ha         1 UN5       0.102000
     45 H71         44.6080    11.0300    16.5230 hc         1 UN5       0.055200
     46 H72         44.6070    12.0910    17.9280 hc         1 UN5       0.055200
     47 H1          44.6880    14.4160    17.0290 ha         1 UN5       0.095000
     48 H121        40.9930     8.6350    14.8800 hc         1 UN5       0.070200
     49 H122        39.6110     9.5370    15.4510 hc         1 UN5       0.070200
     50 H131        38.9980     7.6500    16.9800 hc         1 UN5       0.049700
     51 H132        40.3900     6.7440    16.4140 hc         1 UN5       0.049700
     52 H16         40.5200     6.1050    13.9300 ha         1 UN5       0.091000
     53 H19         39.1690     5.2790    12.0290 ha         1 UN5       0.094000
     54 H15         36.7310     5.6130    11.9800 ha         1 UN5       0.148000
     55 H17         36.9640     7.6660    15.7360 ha         1 UN5       0.101000
     56 HN3         34.9780     7.4900    14.6240 hn         1 UN5       0.460000
@<TRIPOS>BOND
     1     1     2 2   
     2     2     3 1   
     3     2     5 1   
     4     3     4 1   
     5     3    35 1   
     6     4    36 1   
     7     4    37 1   
     8     4    38 1   
     9     5     6 1   
    10     5    18 1   
    11     5    39 1   
    12     6     7 1   
    13     6    20 1   
    14     7     8 1   
    15     7    40 1   
    16     7    41 1   
    17     8     9 ar  
    18     8    17 ar  
    19     9    10 ar  
    20     9    42 1   
    21    10    11 1   
    22    10    16 ar  
    23    11    12 1   
    24    11    43 1   
    25    12    13 1   
    26    12    14 1   
    27    12    15 1   
    28    16    19 ar  
    29    16    44 1   
    30    17    18 1   
    31    17    19 ar  
    32    18    45 1   
    33    18    46 1   
    34    19    47 1   
    35    20    21 2   
    36    20    22 1   
    37    22    23 1   
    38    22    48 1   
    39    22    49 1   
    40    23    24 1   
    41    23    50 1   
    42    23    51 1   
    43    24    25 ar  
    44    24    29 ar  
    45    25    26 ar  
    46    25    52 1   
    47    26    27 ar  
    48    26    53 1   
    49    27    28 ar  
    50    27    54 1   
    51    28    29 ar  
    52    28    30 1   
    53    29    55 1   
    54    30    31 1   
    55    30    56 1   
    56    31    32 1   
    57    31    33 1   
    58    31    34 1   
@<TRIPOS>SUBSTRUCTURE
     1 UN5         1 TEMP              0 ****  ****    0 ROOT
