@<TRIPOS>MOLECULE
UN5
   56    58     1     0     0
SMALL
No Charge or Current Charge


@<TRIPOS>ATOM
      1 O8          40.4250    11.4320    19.2150 o          1 UN5      -0.649100
      2 C9          41.4970    11.8720    18.8120 c          1 UN5       0.601100
      3 N4          41.9690    13.0890    19.2620 ns         1 UN5      -0.482900
      4 C20         41.2580    13.9580    20.2000 c3         1 UN5       0.101300
      5 C8          42.3960    11.0710    17.8110 c6         1 UN5       0.037700
      6 N2          41.6230    10.4120    16.7070 n          1 UN5      -0.428800
      7 C11         41.1810    11.3260    15.6090 c6         1 UN5       0.151300
      8 C6          41.9570    12.6500    15.4710 ca         1 UN5      -0.077300
      9 C2          41.5050    13.6210    14.5570 ca         1 UN5      -0.131000
     10 C5          42.2020    14.8330    14.3890 ca         1 UN5       0.353000
     11 N1          41.7650    15.8150    13.5150 nu         1 UN5      -0.888100
     12 S1          41.2900    15.5880    11.9680 s6         1 UN5       1.378700
     13 O3          41.6700    16.8830    11.4060 o          1 UN5      -0.700867
     14 O2          42.1030    14.4440    11.5510 o          1 UN5      -0.700867
     15 O1          39.8540    15.3440    12.1220 o          1 UN5      -0.700867
     16 C4          43.3490    15.0790    15.1600 ca         1 UN5      -0.188000
     17 C3          43.1170    12.9060    16.2300 ca         1 UN5      -0.147300
     18 C7          43.5960    11.8630    17.2300 c6         1 UN5      -0.018100
     19 C1          43.8110    14.1180    16.0730 ca         1 UN5      -0.070000
     20 C10         41.1370     9.0890    16.8340 c          1 UN5       0.588100
     21 O4          41.4180     8.4130    17.8170 o          1 UN5      -0.622100
     22 C12         40.2840     8.5030    15.6900 c3         1 UN5      -0.150400
     23 C13         39.7640     7.0640    15.9090 c3         1 UN5      -0.013100
     24 C14         38.9330     6.5740    14.7310 ca         1 UN5      -0.066300
     25 C16         39.5670     6.0740    13.5780 ca         1 UN5      -0.176000
     26 C19         38.8050     5.6160    12.4920 ca         1 UN5      -0.083000
     27 C15         37.4020     5.6600    12.5530 ca         1 UN5      -0.152000
     28 C18         36.7550     6.1730    13.6930 ca         1 UN5       0.357000
     29 C17         37.5260     6.6170    14.7810 ca         1 UN5      -0.183000
     30 N3          35.3750     6.2070    13.7960 nu         1 UN5      -0.902100
     31 S2          34.3370     6.7590    12.6640 s6         1 UN5       1.390700
     32 O5          34.0510     5.5470    11.8930 o          1 UN5      -0.707200
     33 O6          35.1220     7.7920    11.9870 o          1 UN5      -0.707200
     34 O7          33.2660     7.2380    13.5370 o          1 UN5      -0.707200
     35 HN4         42.8470    13.4130    18.8740 hn         1 UN5       0.333500
     36 H201        41.1050    13.4290    21.1500 h1         1 UN5       0.035033
     37 H202        41.8500    14.8630    20.3810 h1         1 UN5       0.035033
     38 H203        40.2850    14.2400    19.7770 h1         1 UN5       0.035033
     39 H8          42.8430    10.2920    18.4430 h1         1 UN5       0.086700
     40 H111        40.1170    11.5610    15.7580 h1         1 UN5       0.058700
     41 H112        41.2640    10.8010    14.6480 h1         1 UN5       0.058700
     42 H2          40.6080    13.4350    13.9750 ha         1 UN5       0.157000
     43 HN1         42.3920    16.5890    13.3880 hn         1 UN5       0.454000
     44 H4          43.8880    16.0160    15.0500 ha         1 UN5       0.102000
     45 H71         44.2670    11.1630    16.7130 hc         1 UN5       0.055200
     46 H72         44.1990    12.3140    18.0290 hc         1 UN5       0.055200
     47 H1          44.7050    14.3190    16.6600 ha         1 UN5       0.095000
     48 H121        40.8680     8.5770    14.7660 hc         1 UN5       0.070200
     49 H122        39.4610     9.1970    15.4840 hc         1 UN5       0.070200
     50 H131        39.1710     7.0310    16.8320 hc         1 UN5       0.049700
     51 H132        40.6160     6.3920    16.0680 hc         1 UN5       0.049700
     52 H16         40.6530     6.0370    13.5260 ha         1 UN5       0.091000
     53 H19         39.2990     5.2230    11.6060 ha         1 UN5       0.094000
     54 H15         36.8170     5.2930    11.7150 ha         1 UN5       0.148000
     55 H17         37.0310     6.9990    15.6690 ha         1 UN5       0.101000
     56 HN3         35.0140     6.6940    14.5970 hn         1 UN5       0.460000
@<TRIPOS>BOND
     1     1     2 2   
     2     2     3 1   
     3     2     5 1   
     4     3     4 1   
     5     3    35 1   
     6     4    36 1   
     7     4    37 1   
     8     4    38 1   
     9     5     6 1   
    10     5    18 1   
    11     5    39 1   
    12     6     7 1   
    13     6    20 1   
    14     7     8 1   
    15     7    40 1   
    16     7    41 1   
    17     8     9 ar  
    18     8    17 ar  
    19     9    10 ar  
    20     9    42 1   
    21    10    11 1   
    22    10    16 ar  
    23    11    12 1   
    24    11    43 1   
    25    12    13 1   
    26    12    14 1   
    27    12    15 1   
    28    16    19 ar  
    29    16    44 1   
    30    17    18 1   
    31    17    19 ar  
    32    18    45 1   
    33    18    46 1   
    34    19    47 1   
    35    20    21 2   
    36    20    22 1   
    37    22    23 1   
    38    22    48 1   
    39    22    49 1   
    40    23    24 1   
    41    23    50 1   
    42    23    51 1   
    43    24    25 ar  
    44    24    29 ar  
    45    25    26 ar  
    46    25    52 1   
    47    26    27 ar  
    48    26    53 1   
    49    27    28 ar  
    50    27    54 1   
    51    28    29 ar  
    52    28    30 1   
    53    29    55 1   
    54    30    31 1   
    55    30    56 1   
    56    31    32 1   
    57    31    33 1   
    58    31    34 1   
@<TRIPOS>SUBSTRUCTURE
     1 UN5         1 TEMP              0 ****  ****    0 ROOT
