@<TRIPOS>MOLECULE
UN6
   45    46     1     0     0
SMALL
No Charge or Current Charge


@<TRIPOS>ATOM
      1 O7         -20.5820    50.0520    50.1110 o          1 UN6      -0.706533
      2 S1         -20.1560    50.0320    48.7100 s6         1 UN6       1.389700
      3 O5         -20.9960    50.7690    47.7670 o          1 UN6      -0.706533
      4 O6         -18.7130    50.0930    48.4660 o          1 UN6      -0.706533
      5 N1         -20.5280    48.5070    48.2620 nu         1 UN6      -0.902100
      6 C5         -19.6910    47.4070    48.3350 ca         1 UN6       0.352000
      7 C4         -19.6110    46.5450    47.2280 ca         1 UN6      -0.185000
      8 C1         -18.7910    45.4040    47.2720 ca         1 UN6      -0.091000
      9 C2         -18.9600    47.1030    49.5000 ca         1 UN6      -0.142000
     10 C6         -18.1380    45.9600    49.5550 ca         1 UN6      -0.091300
     11 C3         -18.0540    45.1150    48.4320 ca         1 UN6      -0.152000
     12 C7         -17.3440    45.6430    50.8130 c3         1 UN6       0.150300
     13 N2         -15.9870    46.1720    50.7270 ns         1 UN6      -0.496900
     14 C8         -15.0400    46.0420    51.7120 c          1 UN6       0.597100
     15 O1         -15.2770    45.4780    52.7710 o          1 UN6      -0.649100
     16 C9         -13.6850    46.6850    51.4040 c3         1 UN6      -0.152400
     17 C10        -12.6080    45.6170    51.1070 c3         1 UN6      -0.019100
     18 C11        -11.2530    46.2410    50.7990 ca         1 UN6      -0.056300
     19 C14        -10.8460    46.4420    49.4650 ca         1 UN6      -0.137000
     20 C15         -9.5930    47.0170    49.1760 ca         1 UN6       0.346000
     21 N3          -9.1750    47.2480    47.8760 nu         1 UN6      -0.887100
     22 S2          -9.2540    46.1900    46.6320 s6         1 UN6       1.380700
     23 O4         -10.5750    46.4780    46.0690 o          1 UN6      -0.703533
     24 O3          -8.1050    46.6450    45.8510 o          1 UN6      -0.703533
     25 O2          -9.1010    44.8970    47.3030 o          1 UN6      -0.703533
     26 C12         -8.7570    47.4140    50.2330 ca         1 UN6      -0.196000
     27 C16         -9.1550    47.2180    51.5660 ca         1 UN6      -0.096000
     28 C13        -10.3990    46.6310    51.8470 ca         1 UN6      -0.174000
     29 HN1        -20.9140    48.6960    47.3540 hn         1 UN6       0.459000
     30 H4         -20.1820    46.7580    46.3290 ha         1 UN6       0.099000
     31 H1         -18.7280    44.7450    46.4090 ha         1 UN6       0.090000
     32 H2         -19.0350    47.7550    50.3650 ha         1 UN6       0.144000
     33 H3         -17.4210    44.2310    48.4600 ha         1 UN6       0.108000
     34 H71        -17.2950    44.5550    50.9570 h1         1 UN6       0.054200
     35 H72        -17.8430    46.0790    51.6900 h1         1 UN6       0.054200
     36 HN2        -15.7150    46.6630    49.8840 hn         1 UN6       0.326500
     37 H91        -13.3640    47.2660    52.2770 hc         1 UN6       0.057700
     38 H92        -13.7680    47.3440    50.5310 hc         1 UN6       0.057700
     39 H101       -12.9400    44.9940    50.2670 hc         1 UN6       0.059200
     40 H102       -12.5200    44.9430    51.9690 hc         1 UN6       0.059200
     41 H14        -11.5050    46.1570    48.6520 ha         1 UN6       0.158000
     42 HN3         -8.2240    47.5570    47.7780 hn         1 UN6       0.448000
     43 H12         -7.7950    47.8730    50.0240 ha         1 UN6       0.095000
     44 H16         -8.5010    47.5240    52.3800 ha         1 UN6       0.082000
     45 H13        -10.7020    46.4850    52.8810 ha         1 UN6       0.092000
@<TRIPOS>BOND
     1     1     2 1   
     2     2     3 1   
     3     2     4 1   
     4     2     5 1   
     5     5     6 1   
     6     5    29 1   
     7     6     7 ar  
     8     6     9 ar  
     9     7     8 ar  
    10     7    30 1   
    11     8    11 ar  
    12     8    31 1   
    13     9    10 ar  
    14     9    32 1   
    15    10    11 ar  
    16    10    12 1   
    17    11    33 1   
    18    12    13 1   
    19    12    34 1   
    20    12    35 1   
    21    13    14 1   
    22    13    36 1   
    23    14    15 2   
    24    14    16 1   
    25    16    17 1   
    26    16    37 1   
    27    16    38 1   
    28    17    18 1   
    29    17    39 1   
    30    17    40 1   
    31    18    19 ar  
    32    18    28 ar  
    33    19    20 ar  
    34    19    41 1   
    35    20    21 1   
    36    20    26 ar  
    37    21    22 1   
    38    21    42 1   
    39    22    23 1   
    40    22    24 1   
    41    22    25 1   
    42    26    27 ar  
    43    26    43 1   
    44    27    28 ar  
    45    27    44 1   
    46    28    45 1   
@<TRIPOS>SUBSTRUCTURE
     1 UN6         1 TEMP              0 ****  ****    0 ROOT
