@<TRIPOS>MOLECULE
UN6
   45    46     1     0     0
SMALL
abcg2


@<TRIPOS>ATOM
      1 O7         -20.0650    50.1420    49.1360 o          1 UN6      -0.706533
      2 S1         -19.5160    49.8760    47.8100 s6         1 UN6       1.389700
      3 O5         -20.2280    50.5360    46.7210 o          1 UN6      -0.706533
      4 O6         -18.0640    50.0420    47.7540 o          1 UN6      -0.706533
      5 N1         -19.8610    48.2400    47.5050 nu         1 UN6      -0.902100
      6 C5         -19.2070    47.1800    48.1480 ca         1 UN6       0.352000
      7 C4         -19.0720    45.9600    47.4750 ca         1 UN6      -0.185000
      8 C1         -18.4750    44.8760    48.1050 ca         1 UN6      -0.091000
      9 C2         -18.7240    47.2850    49.4570 ca         1 UN6      -0.142000
     10 C6         -18.1110    46.2020    50.0790 ca         1 UN6      -0.091300
     11 C3         -17.9890    44.9870    49.4030 ca         1 UN6      -0.152000
     12 C7         -17.5400    46.3660    51.4680 c3         1 UN6       0.150300
     13 N2         -16.1210    46.7000    51.4350 ns         1 UN6      -0.496900
     14 C8         -15.1330    45.8400    51.7510 c          1 UN6       0.597100
     15 O1         -15.3410    44.6940    52.1600 o          1 UN6      -0.649100
     16 C9         -13.7240    46.3740    51.5800 c3         1 UN6      -0.152400
     17 C10        -12.8810    45.4640    50.6720 c3         1 UN6      -0.019100
     18 C11        -11.4740    45.9820    50.5130 ca         1 UN6      -0.056300
     19 C14        -11.0980    46.6370    49.3430 ca         1 UN6      -0.137000
     20 C15         -9.8060    47.1530    49.1900 ca         1 UN6       0.346000
     21 N3          -9.4170    47.8520    48.0320 nu         1 UN6      -0.887100
     22 S2          -9.8730    47.3510    46.4700 s6         1 UN6       1.380700
     23 O4         -11.2920    47.6750    46.3570 o          1 UN6      -0.703533
     24 O3          -9.0020    48.1700    45.6320 o          1 UN6      -0.703533
     25 O2          -9.6090    45.9160    46.3710 o          1 UN6      -0.703533
     26 C12         -8.8900    47.0080    50.2360 ca         1 UN6      -0.196000
     27 C16         -9.2680    46.3640    51.4080 ca         1 UN6      -0.096000
     28 C13        -10.5490    45.8460    51.5510 ca         1 UN6      -0.174000
     29 HN1        -20.0080    48.0940    46.5150 hn         1 UN6       0.459000
     30 H4         -19.4420    45.8680    46.4610 ha         1 UN6       0.099000
     31 H1         -18.3860    43.9370    47.5720 ha         1 UN6       0.090000
     32 H2         -18.8300    48.2180    49.9930 ha         1 UN6       0.144000
     33 H3         -17.5170    44.1420    49.8870 ha         1 UN6       0.108000
     34 H71        -17.6370    45.4440    52.0360 h1         1 UN6       0.054200
     35 H72        -18.0700    47.1580    51.9990 h1         1 UN6       0.054200
     36 HN2        -15.8660    47.6010    51.0600 hn         1 UN6       0.326500
     37 H91        -13.2690    46.4190    52.5720 hc         1 UN6       0.057700
     38 H92        -13.7390    47.3880    51.1780 hc         1 UN6       0.057700
     39 H101       -13.3590    45.3920    49.6920 hc         1 UN6       0.059200
     40 H102       -12.8650    44.4610    51.1030 hc         1 UN6       0.059200
     41 H14        -11.8130    46.7530    48.5410 ha         1 UN6       0.158000
     42 HN3         -8.4320    48.0870    48.0250 hn         1 UN6       0.448000
     43 H12         -7.8850    47.3980    50.1250 ha         1 UN6       0.095000
     44 H16         -8.5480    46.2550    52.2100 ha         1 UN6       0.082000
     45 H13        -10.8330    45.3370    52.4640 ha         1 UN6       0.092000
@<TRIPOS>BOND
     1     1     2 1   
     2     2     3 1   
     3     2     4 1   
     4     2     5 1   
     5     5     6 1   
     6     5    29 1   
     7     6     7 ar  
     8     6     9 ar  
     9     7     8 ar  
    10     7    30 1   
    11     8    11 ar  
    12     8    31 1   
    13     9    10 ar  
    14     9    32 1   
    15    10    11 ar  
    16    10    12 1   
    17    11    33 1   
    18    12    13 1   
    19    12    34 1   
    20    12    35 1   
    21    13    14 1   
    22    13    36 1   
    23    14    15 2   
    24    14    16 1   
    25    16    17 1   
    26    16    37 1   
    27    16    38 1   
    28    17    18 1   
    29    17    39 1   
    30    17    40 1   
    31    18    19 ar  
    32    18    28 ar  
    33    19    20 ar  
    34    19    41 1   
    35    20    21 1   
    36    20    26 ar  
    37    21    22 1   
    38    21    42 1   
    39    22    23 1   
    40    22    24 1   
    41    22    25 1   
    42    26    27 ar  
    43    26    43 1   
    44    27    28 ar  
    45    27    44 1   
    46    28    45 1   
@<TRIPOS>SUBSTRUCTURE
     1 UN6         1 TEMP              0 ****  ****    0 ROOT
