@<TRIPOS>MOLECULE
UN7
   53    55     1     0     0
SMALL
No Charge or Current Charge


@<TRIPOS>ATOM
      1 O53         41.5010    16.5960    11.0350 o          1 UN7      -0.704867
      2 S33         42.4970    16.4570    12.0970 s6         1 UN7       1.380700
      3 O51         43.6110    15.5490    11.8160 o          1 UN7      -0.704867
      4 O52         42.8220    17.6740    12.8440 o          1 UN7      -0.704867
      5 N9          41.6170    15.6130    13.1840 nu         1 UN7      -0.887100
      6 C5          42.1070    14.7070    14.1100 ca         1 UN7       0.347000
      7 C4          43.2230    14.9990    14.9160 ca         1 UN7      -0.143000
      8 C2          41.4390    13.4820    14.2790 ca         1 UN7      -0.172000
      9 C6          41.8850    12.5390    15.2260 ca         1 UN7      -0.082300
     10 C3          43.0110    12.8390    16.0190 ca         1 UN7      -0.142300
     11 C7          43.4820    11.8270    17.0530 c6         1 UN7      -0.019100
     12 C1          43.6780    14.0670    15.8630 ca         1 UN7      -0.069000
     13 C19         41.1410    11.1970    15.3610 c6         1 UN7       0.154300
     14 N15         41.5690    10.3140    16.4890 n          1 UN7      -0.429800
     15 C13         42.2860    11.0110    17.6060 c6         1 UN7       0.037700
     16 C16         41.3310    11.8020    18.5640 c          1 UN7       0.601100
     17 N27         41.7560    13.0360    19.0130 ns         1 UN7      -0.483900
     18 C28         40.9900    13.8980    19.9140 c3         1 UN7       0.101300
     19 O26         40.2570    11.3400    18.9340 o          1 UN7      -0.645100
     20 C20         41.1080     8.9820    16.6220 c          1 UN7       0.588100
     21 O21         41.3680     8.3320    17.6270 o          1 UN7      -0.617100
     22 C22         40.3120     8.3570    15.4590 c3         1 UN7      -0.150400
     23 C25         39.8150     6.9110    15.6850 c3         1 UN7      -0.007100
     24 C35         39.0420     6.3830    14.4830 ca         1 UN7      -0.126300
     25 C39         37.6360     6.4720    14.4440 ca         1 UN7      -0.079000
     26 C42         36.9050     5.9900    13.3320 ca         1 UN7      -0.130600
     27 C46         35.3870     6.0870    13.2970 c          1 UN7       0.705600
     28 O49         34.7950     5.6650    12.3130 o          1 UN7      -0.725500
     29 O48         34.8080     6.5830    14.2540 o          1 UN7      -0.725500
     30 C38         37.6190     5.4160    12.2540 ca         1 UN7      -0.087000
     31 C41         39.0210     5.3280    12.2900 ca         1 UN7      -0.149000
     32 C40         39.7310     5.8110    13.3990 ca         1 UN7      -0.133000
     33 HN9         40.8910    15.2690    12.5810 hn         1 UN7       0.456000
     34 H4          43.7350    15.9500    14.8110 ha         1 UN7       0.152000
     35 H2          40.5700    13.2560    13.6670 ha         1 UN7       0.109000
     36 H71         44.0450    12.3080    17.8640 hc         1 UN7       0.056200
     37 H72         44.1900    11.1380    16.5720 hc         1 UN7       0.056200
     38 H1          44.5450    14.3040    16.4760 ha         1 UN7       0.102000
     39 H191        41.2720    10.6580    14.4120 h1         1 UN7       0.050700
     40 H192        40.0670    11.4050    15.4690 h1         1 UN7       0.050700
     41 H13         42.7310    10.2550    18.2660 h1         1 UN7       0.087700
     42 H27         42.6400    13.3770    18.6540 hn         1 UN7       0.331500
     43 H281        40.8150    13.3780    20.8640 h1         1 UN7       0.035367
     44 H282        41.5530    14.8210    20.1040 h1         1 UN7       0.035367
     45 H283        40.0270    14.1510    19.4520 h1         1 UN7       0.035367
     46 H221        40.9280     8.4270    14.5560 hc         1 UN7       0.065200
     47 H222        39.4830     9.0280    15.2080 hc         1 UN7       0.065200
     48 H251        39.1850     6.8830    16.5830 hc         1 UN7       0.049200
     49 H252        40.6750     6.2620    15.8910 hc         1 UN7       0.049200
     50 H39         37.1110     6.9210    15.2850 ha         1 UN7       0.128000
     51 H38         37.0890     5.0350    11.3830 ha         1 UN7       0.124000
     52 H41         39.5570     4.8860    11.4530 ha         1 UN7       0.083000
     53 H40         40.8160     5.7400    13.4160 ha         1 UN7       0.082000
@<TRIPOS>BOND
     1     1     2 1   
     2     2     3 1   
     3     2     4 1   
     4     2     5 1   
     5     5     6 1   
     6     5    33 1   
     7     6     7 ar  
     8     6     8 ar  
     9     7    12 ar  
    10     7    34 1   
    11     8     9 ar  
    12     8    35 1   
    13     9    10 ar  
    14     9    13 1   
    15    10    11 1   
    16    10    12 ar  
    17    11    15 1   
    18    11    36 1   
    19    11    37 1   
    20    12    38 1   
    21    13    14 1   
    22    13    39 1   
    23    13    40 1   
    24    14    15 1   
    25    14    20 1   
    26    15    16 1   
    27    15    41 1   
    28    16    17 1   
    29    16    19 2   
    30    17    18 1   
    31    17    42 1   
    32    18    43 1   
    33    18    44 1   
    34    18    45 1   
    35    20    21 2   
    36    20    22 1   
    37    22    23 1   
    38    22    46 1   
    39    22    47 1   
    40    23    24 1   
    41    23    48 1   
    42    23    49 1   
    43    24    25 ar  
    44    24    32 ar  
    45    25    26 ar  
    46    25    50 1   
    47    26    27 1   
    48    26    30 ar  
    49    27    28 1   
    50    27    29 1   
    51    30    31 ar  
    52    30    51 1   
    53    31    32 ar  
    54    31    52 1   
    55    32    53 1   
@<TRIPOS>SUBSTRUCTURE
     1 UN7         1 TEMP              0 ****  ****    0 ROOT
