@<TRIPOS>MOLECULE
UN7
   53    55     1     0     0
SMALL
abcg2


@<TRIPOS>ATOM
      1 O53         41.5780    17.2590    11.5690 o          1 UN7      -0.704867
      2 S33         42.5630    16.7410    12.5150 s6         1 UN7       1.380700
      3 O51         43.6730    16.0290    11.8800 o          1 UN7      -0.704867
      4 O52         43.0100    17.7140    13.5080 o          1 UN7      -0.704867
      5 N9          41.6420    15.5980    13.3800 nu         1 UN7      -0.887100
      6 C5          42.2370    14.6600    14.2460 ca         1 UN7       0.347000
      7 C4          43.2400    15.0200    15.1510 ca         1 UN7      -0.143000
      8 C2          41.7720    13.3400    14.2430 ca         1 UN7      -0.172000
      9 C6          42.3040    12.4000    15.1160 ca         1 UN7      -0.082300
     10 C3          43.3120    12.7570    16.0100 ca         1 UN7      -0.142300
     11 C7          43.8160    11.6840    16.9270 c6         1 UN7      -0.019100
     12 C1          43.7650    14.0720    16.0200 ca         1 UN7      -0.069000
     13 C19         41.8560    10.9640    15.0830 c6         1 UN7       0.154300
     14 N15         41.7910    10.3660    16.4310 n          1 UN7      -0.429800
     15 C13         42.6400    10.8860    17.5040 c6         1 UN7       0.037700
     16 C16         41.8870    11.7340    18.5380 c          1 UN7       0.601100
     17 N27         40.6440    12.1170    18.2310 ns         1 UN7      -0.483900
     18 C28         39.8310    12.9190    19.1280 c3         1 UN7       0.101300
     19 O26         42.4450    12.0430    19.5930 o          1 UN7      -0.645100
     20 C20         41.1020     9.2160    16.6800 c          1 UN7       0.588100
     21 O21         41.0970     8.7120    17.8040 o          1 UN7      -0.617100
     22 C22         40.3430     8.5960    15.5230 c3         1 UN7      -0.150400
     23 C25         39.7220     7.2420    15.8750 c3         1 UN7      -0.007100
     24 C35         38.9620     6.6670    14.7070 ca         1 UN7      -0.126300
     25 C39         37.5980     6.9120    14.5560 ca         1 UN7      -0.079000
     26 C42         36.8820     6.4300    13.4600 ca         1 UN7      -0.130600
     27 C46         35.3870     6.7190    13.3200 c          1 UN7       0.705600
     28 O49         34.8250     6.3230    12.2660 o          1 UN7      -0.725500
     29 O48         34.8320     7.3340    14.2670 o          1 UN7      -0.725500
     30 C38         37.5580     5.6810    12.4960 ca         1 UN7      -0.087000
     31 C41         38.9160     5.4190    12.6340 ca         1 UN7      -0.149000
     32 C40         39.6150     5.9100    13.7320 ca         1 UN7      -0.133000
     33 HN9         40.9690    15.1810    12.7490 hn         1 UN7       0.456000
     34 H4          43.5960    16.0390    15.1760 ha         1 UN7       0.152000
     35 H2          40.9890    13.0530    13.5490 ha         1 UN7       0.109000
     36 H71         44.3970    12.1000    17.7490 hc         1 UN7       0.056200
     37 H72         44.4640    10.9860    16.3870 hc         1 UN7       0.056200
     38 H1          44.5360    14.3640    16.7230 ha         1 UN7       0.102000
     39 H191        42.5520    10.3830    14.4650 h1         1 UN7       0.050700
     40 H192        40.8770    10.9000    14.6160 h1         1 UN7       0.050700
     41 H13         43.0250    10.0340    18.0630 h1         1 UN7       0.087700
     42 H27         40.2470    11.8110    17.3580 hn         1 UN7       0.331500
     43 H281        40.3180    13.8710    19.3450 h1         1 UN7       0.035367
     44 H282        38.8740    13.1070    18.6500 h1         1 UN7       0.035367
     45 H283        39.6630    12.3960    20.0720 h1         1 UN7       0.035367
     46 H221        41.0130     8.4900    14.6670 hc         1 UN7       0.065200
     47 H222        39.5600     9.2920    15.2070 hc         1 UN7       0.065200
     48 H251        39.0550     7.3630    16.7290 hc         1 UN7       0.049200
     49 H252        40.5140     6.5560    16.1810 hc         1 UN7       0.049200
     50 H39         37.0700     7.4900    15.3040 ha         1 UN7       0.128000
     51 H38         37.0070     5.3040    11.6450 ha         1 UN7       0.124000
     52 H41         39.4330     4.8300    11.8860 ha         1 UN7       0.083000
     53 H40         40.6750     5.7040    13.8360 ha         1 UN7       0.082000
@<TRIPOS>BOND
     1     1     2 1   
     2     2     3 1   
     3     2     4 1   
     4     2     5 1   
     5     5     6 1   
     6     5    33 1   
     7     6     7 ar  
     8     6     8 ar  
     9     7    12 ar  
    10     7    34 1   
    11     8     9 ar  
    12     8    35 1   
    13     9    10 ar  
    14     9    13 1   
    15    10    11 1   
    16    10    12 ar  
    17    11    15 1   
    18    11    36 1   
    19    11    37 1   
    20    12    38 1   
    21    13    14 1   
    22    13    39 1   
    23    13    40 1   
    24    14    15 1   
    25    14    20 1   
    26    15    16 1   
    27    15    41 1   
    28    16    17 1   
    29    16    19 2   
    30    17    18 1   
    31    17    42 1   
    32    18    43 1   
    33    18    44 1   
    34    18    45 1   
    35    20    21 2   
    36    20    22 1   
    37    22    23 1   
    38    22    46 1   
    39    22    47 1   
    40    23    24 1   
    41    23    48 1   
    42    23    49 1   
    43    24    25 ar  
    44    24    32 ar  
    45    25    26 ar  
    46    25    50 1   
    47    26    27 1   
    48    26    30 ar  
    49    27    28 1   
    50    27    29 1   
    51    30    31 ar  
    52    30    51 1   
    53    31    32 ar  
    54    31    52 1   
    55    32    53 1   
@<TRIPOS>SUBSTRUCTURE
     1 UN7         1 TEMP              0 ****  ****    0 ROOT
