@<TRIPOS>MOLECULE
UN8
   68    72     1     0     0
SMALL
bcc


@<TRIPOS>ATOM
      1 O2          -6.1970     0.1130    -1.5270 o          1 UN8      -0.609800
      2 S1          -6.2700     0.1640    -0.0790 sy         1 UN8       1.294800
      3 O1          -7.3680     0.8460     0.5860 o          1 UN8      -0.609800
      4 C1          -6.2550    -1.4650     0.5360 cc         1 UN8       0.075200
      5 C2          -7.1020    -1.9870     1.4730 cd         1 UN8      -0.132600
      6 N5          -6.6990    -3.2740     1.6160 na         1 UN8      -0.172900
      7 C4          -7.3030    -4.2700     2.4780 c3         1 UN8       0.021600
      8 C3          -5.6520    -3.4660     0.7800 cd         1 UN8       0.391400
      9 N7          -5.3560    -2.3860     0.1080 nc         1 UN8      -0.596000
     10 N4          -4.8640     0.8410     0.4820 nu         1 UN8      -0.731500
     11 C8          -3.7540     1.1110    -0.3430 ca         1 UN8       0.165600
     12 C9          -3.2120     2.3910    -0.3540 ca         1 UN8      -0.145000
     13 C30         -2.0920     2.6670    -1.1250 ca         1 UN8      -0.088000
     14 C7          -3.1650     0.1100    -1.1100 ca         1 UN8      -0.145000
     15 C6          -2.0650     0.4060    -1.8970 ca         1 UN8      -0.088000
     16 C5          -1.5140     1.6840    -1.9170 ca         1 UN8      -0.100300
     17 C16         -0.2960     1.9800    -2.7550 c3         1 UN8      -0.056400
     18 C14          0.9580     1.5610    -2.0690 cc         1 UN8       0.463800
     19 N15          1.8320     0.6930    -2.5960 na         1 UN8      -0.246900
     20 C55          2.8560     0.5510    -1.6940 cc         1 UN8      -0.367200
     21 C56          4.0500    -0.2150    -1.7090 c          1 UN8       0.777100
     22 O57          4.4310    -0.9550    -2.5980 o          1 UN8      -0.611500
     23 C54          2.5120     1.3710    -0.6530 cd         1 UN8       0.506200
     24 N13          1.3440     1.9950    -0.8780 nd         1 UN8      -0.700000
     25 N53          3.3040     1.5070     0.4500 n          1 UN8      -0.424300
     26 C59          2.9300     2.4430     1.5050 c3         1 UN8       0.116000
     27 C10          3.3730     3.8690     1.2110 c3         1 UN8      -0.099400
     28 C11          2.9710     4.8220     2.3300 c3         1 UN8      -0.072400
     29 C12          3.3730     6.2610     2.0400 c3         1 UN8      -0.088100
     30 C52          4.5060     0.8470     0.5080 c          1 UN8       0.839500
     31 O58          5.2770     1.0180     1.4310 o          1 UN8      -0.625500
     32 N51          4.7980    -0.0320    -0.5380 n          1 UN8      -0.509400
     33 C17          6.0110    -0.8410    -0.4300 c3         1 UN8       0.153300
     34 C18          5.7210    -2.3090    -0.2720 ca         1 UN8      -0.143300
     35 C19          4.9890    -2.8020     0.7980 ca         1 UN8       0.149900
     36 F24          4.5050    -1.9310     1.7020 f          1 UN8      -0.140900
     37 C20          4.7310    -4.1460     0.9790 ca         1 UN8      -0.176000
     38 C21          5.2340    -5.0510     0.0540 ca         1 UN8      -0.097000
     39 C22          5.9760    -4.5980    -1.0280 ca         1 UN8      -0.149000
     40 C23          6.2070    -3.2390    -1.1850 ca         1 UN8      -0.074000
     41 H2          -7.9260    -1.5660     2.0240 h4         1 UN8       0.199000
     42 H41         -8.2780    -4.5620     2.0960 h1         1 UN8       0.061033
     43 H42         -6.6590    -5.1430     2.5140 h1         1 UN8       0.061033
     44 H43         -7.4130    -3.8730     3.4840 h1         1 UN8       0.061033
     45 H3          -5.1450    -4.4160     0.7040 h5         1 UN8       0.062100
     46 HN4         -5.0220     1.4880     1.2450 hn         1 UN8       0.443800
     47 H9          -3.6660     3.1750     0.2390 ha         1 UN8       0.148000
     48 H30         -1.6820     3.6690    -1.1190 ha         1 UN8       0.133000
     49 H7          -3.5530    -0.9000    -1.0840 ha         1 UN8       0.148000
     50 H6          -1.6210    -0.3790    -2.4970 ha         1 UN8       0.133000
     51 H161        -0.2350     3.0510    -2.9600 hc         1 UN8       0.066200
     52 H162        -0.3670     1.4800    -3.7230 hc         1 UN8       0.066200
     53 HN15         1.7530     0.2340    -3.4910 hn         1 UN8       0.323700
     54 H591         3.3590     2.0890     2.4390 h1         1 UN8       0.072200
     55 H592         1.8460     2.3960     1.6060 h1         1 UN8       0.072200
     56 H101         2.9270     4.2010     0.2690 hc         1 UN8       0.052200
     57 H102         4.4580     3.8960     1.0760 hc         1 UN8       0.052200
     58 H111         3.4280     4.4930     3.2680 hc         1 UN8       0.039200
     59 H112         1.8890     4.7680     2.4830 hc         1 UN8       0.039200
     60 H121         4.4520     6.3510     1.9040 hc         1 UN8       0.032700
     61 H122         2.8930     6.6270     1.1310 hc         1 UN8       0.032700
     62 H123         3.0860     6.9260     2.8550 hc         1 UN8       0.032700
     63 H171         6.6220    -0.6900    -1.3190 h1         1 UN8       0.079700
     64 H172         6.5820    -0.4670     0.4150 h1         1 UN8       0.079700
     65 H20          4.1540    -4.4780     1.8330 ha         1 UN8       0.148000
     66 H21          5.0420    -6.1080     0.1840 ha         1 UN8       0.133000
     67 H22          6.3660    -5.2990    -1.7530 ha         1 UN8       0.136000
     68 H23          6.7720    -2.8840    -2.0380 ha         1 UN8       0.140000
@<TRIPOS>BOND
     1     1     2 2   
     2     2     3 2   
     3     2     4 1   
     4     2    10 1   
     5     4     5 2   
     6     4     9 1   
     7     5     6 1   
     8     5    41 1   
     9     6     7 1   
    10     6     8 1   
    11     7    42 1   
    12     7    43 1   
    13     7    44 1   
    14     8     9 2   
    15     8    45 1   
    16    10    11 1   
    17    10    46 1   
    18    11    12 ar  
    19    11    14 ar  
    20    12    13 ar  
    21    12    47 1   
    22    13    16 ar  
    23    13    48 1   
    24    14    15 ar  
    25    14    49 1   
    26    15    16 ar  
    27    15    50 1   
    28    16    17 1   
    29    17    18 1   
    30    17    51 1   
    31    17    52 1   
    32    18    19 1   
    33    18    24 2   
    34    19    20 1   
    35    19    53 1   
    36    20    21 1   
    37    20    23 2   
    38    21    22 2   
    39    21    32 1   
    40    23    24 1   
    41    23    25 1   
    42    25    26 1   
    43    25    30 1   
    44    26    27 1   
    45    26    54 1   
    46    26    55 1   
    47    27    28 1   
    48    27    56 1   
    49    27    57 1   
    50    28    29 1   
    51    28    58 1   
    52    28    59 1   
    53    29    60 1   
    54    29    61 1   
    55    29    62 1   
    56    30    31 2   
    57    30    32 1   
    58    32    33 1   
    59    33    34 1   
    60    33    63 1   
    61    33    64 1   
    62    34    35 ar  
    63    34    40 ar  
    64    35    36 1   
    65    35    37 ar  
    66    37    38 ar  
    67    37    65 1   
    68    38    39 ar  
    69    38    66 1   
    70    39    40 ar  
    71    39    67 1   
    72    40    68 1   
@<TRIPOS>SUBSTRUCTURE
     1 UN8         1 TEMP              0 ****  ****    0 ROOT
