@<TRIPOS>MOLECULE
UN8
   68    72     1     0     0
SMALL
No Charge or Current Charge


@<TRIPOS>ATOM
      1 O2          -7.1230     0.3710    -0.7900 o          1 UN8      -0.539000
      2 S1          -6.7750    -0.7970     0.0300 sy         1 UN8       1.153200
      3 O1          -7.5920    -1.2380     1.1650 o          1 UN8      -0.539000
      4 C1          -6.3130    -2.2380    -1.0180 cc         1 UN8       0.009900
      5 C2          -6.0770    -3.4930    -0.5140 cd         1 UN8      -0.100000
      6 N5          -5.7600    -4.2770    -1.6110 na         1 UN8      -0.151500
      7 C4          -5.4270    -5.7090    -1.5890 c3         1 UN8       0.050900
      8 C3          -5.8200    -3.4670    -2.7360 cd         1 UN8       0.391400
      9 N7          -6.1540    -2.2290    -2.3940 nc         1 UN8      -0.596000
     10 N4          -5.3220    -0.3800     0.7790 nu         1 UN8      -0.925100
     11 C8          -4.2740     0.4020     0.3030 ca         1 UN8       0.304000
     12 C9          -3.4690     1.0870     1.2290 ca         1 UN8      -0.127000
     13 C30         -2.3920     1.8790     0.7950 ca         1 UN8      -0.070000
     14 C7          -3.9750     0.5060    -1.0690 ca         1 UN8      -0.127000
     15 C6          -2.8980     1.2960    -1.5080 ca         1 UN8      -0.070000
     16 C5          -2.1020     1.9890    -0.5780 ca         1 UN8      -0.100300
     17 C16         -0.9260     2.8430    -1.0420 c3         1 UN8      -0.056400
     18 C14          0.4110     2.2440    -0.6980 cc         1 UN8       0.463800
     19 N15          0.7670     0.9460    -0.9610 na         1 UN8      -0.246500
     20 C55          2.0580     0.7730    -0.4900 cc         1 UN8      -0.352600
     21 C56          2.9490    -0.3820    -0.4810 c          1 UN8       0.634600
     22 O57          2.6220    -1.4570    -0.9650 o          1 UN8      -0.536000
     23 C54          2.4250     1.9700     0.0270 cd         1 UN8       0.440900
     24 N13          1.4040     2.8850    -0.1010 nd         1 UN8      -0.700000
     25 N53          3.6650     2.1660     0.5770 n          1 UN8      -0.357300
     26 C59          4.0380     3.4910     1.1310 c3         1 UN8       0.116000
     27 C10          4.5720     4.4590     0.0540 c3         1 UN8      -0.099400
     28 C11          4.9510     5.8440     0.6230 c3         1 UN8      -0.072400
     29 C12          5.4890     6.8090    -0.4510 c3         1 UN8      -0.088100
     30 C52          4.5880     1.1050     0.6260 c          1 UN8       0.630000
     31 O58          5.7080     1.2780     1.0890 o          1 UN8      -0.550000
     32 N51          4.1910    -0.1480     0.1180 n          1 UN8      -0.375400
     33 C17          5.1370    -1.2950     0.2040 c3         1 UN8       0.153300
     34 C18          4.7080    -2.3780     1.1950 ca         1 UN8      -0.143300
     35 C19          4.7520    -2.1540     2.5880 ca         1 UN8       0.185000
     36 F24          5.1800    -0.9710     3.0790 f          1 UN8      -0.176000
     37 C20          4.3560    -3.1580     3.4870 ca         1 UN8      -0.158000
     38 C21          3.9110    -4.4000     3.0050 ca         1 UN8      -0.079000
     39 C22          3.8670    -4.6340     1.6200 ca         1 UN8      -0.131000
     40 C23          4.2640    -3.6300     0.7190 ca         1 UN8      -0.056000
     41 H2          -6.1090    -3.8640     0.5050 h4         1 UN8       0.181000
     42 H41         -6.3500    -6.3010    -1.6190 h1         1 UN8       0.061033
     43 H42         -4.8060    -5.9610    -2.4580 h1         1 UN8       0.061033
     44 H43         -4.8740    -5.9470    -0.6720 h1         1 UN8       0.061033
     45 H3          -5.6160    -3.8390    -3.7330 h5         1 UN8       0.062100
     46 HN4         -5.5460    -0.2960     1.7610 hn         1 UN8       0.499000
     47 H9          -3.6780     1.0080     2.2920 ha         1 UN8       0.130000
     48 H30         -1.7820     2.4040     1.5270 ha         1 UN8       0.115000
     49 H7          -4.5700    -0.0250    -1.8050 ha         1 UN8       0.130000
     50 H6          -2.6850     1.3650    -2.5730 ha         1 UN8       0.115000
     51 H161        -1.0010     3.8410    -0.5940 hc         1 UN8       0.066200
     52 H162        -0.9700     3.0020    -2.1260 hc         1 UN8       0.066200
     53 HN15         0.1730     0.2560    -1.4070 hn         1 UN8       0.374000
     54 H591         4.7890     3.3750     1.9230 h1         1 UN8       0.072200
     55 H592         3.1540     3.9390     1.6060 h1         1 UN8       0.072200
     56 H101         3.8120     4.5840    -0.7270 hc         1 UN8       0.052200
     57 H102         5.4520     4.0100    -0.4240 hc         1 UN8       0.052200
     58 H111         5.7110     5.7210     1.4050 hc         1 UN8       0.039200
     59 H112         4.0710     6.2940     1.0990 hc         1 UN8       0.039200
     60 H121         6.3930     6.4030    -0.9210 hc         1 UN8       0.032700
     61 H122         4.7380     6.9790    -1.2320 hc         1 UN8       0.032700
     62 H123         5.7420     7.7770    -0.0020 hc         1 UN8       0.032700
     63 H171         5.2320    -1.7380    -0.7970 h1         1 UN8       0.079700
     64 H172         6.1460    -0.9590     0.4720 h1         1 UN8       0.079700
     65 H20          4.3950    -2.9710     4.5570 ha         1 UN8       0.130000
     66 H21          3.6040    -5.1790     3.7000 ha         1 UN8       0.115000
     67 H22          3.5230    -5.5950     1.2430 ha         1 UN8       0.118000
     68 H23          4.2200    -3.8250    -0.3500 ha         1 UN8       0.122000
@<TRIPOS>BOND
     1     1     2 2   
     2     2     3 2   
     3     2     4 1   
     4     2    10 1   
     5     4     5 2   
     6     4     9 1   
     7     5     6 1   
     8     5    41 1   
     9     6     7 1   
    10     6     8 1   
    11     7    42 1   
    12     7    43 1   
    13     7    44 1   
    14     8     9 2   
    15     8    45 1   
    16    10    11 1   
    17    10    46 1   
    18    11    12 ar  
    19    11    14 ar  
    20    12    13 ar  
    21    12    47 1   
    22    13    16 ar  
    23    13    48 1   
    24    14    15 ar  
    25    14    49 1   
    26    15    16 ar  
    27    15    50 1   
    28    16    17 1   
    29    17    18 1   
    30    17    51 1   
    31    17    52 1   
    32    18    19 1   
    33    18    24 2   
    34    19    20 1   
    35    19    53 1   
    36    20    21 1   
    37    20    23 2   
    38    21    22 2   
    39    21    32 1   
    40    23    24 1   
    41    23    25 1   
    42    25    26 1   
    43    25    30 1   
    44    26    27 1   
    45    26    54 1   
    46    26    55 1   
    47    27    28 1   
    48    27    56 1   
    49    27    57 1   
    50    28    29 1   
    51    28    58 1   
    52    28    59 1   
    53    29    60 1   
    54    29    61 1   
    55    29    62 1   
    56    30    31 2   
    57    30    32 1   
    58    32    33 1   
    59    33    34 1   
    60    33    63 1   
    61    33    64 1   
    62    34    35 ar  
    63    34    40 ar  
    64    35    36 1   
    65    35    37 ar  
    66    37    38 ar  
    67    37    65 1   
    68    38    39 ar  
    69    38    66 1   
    70    39    40 ar  
    71    39    67 1   
    72    40    68 1   
@<TRIPOS>SUBSTRUCTURE
     1 UN8         1 TEMP              0 ****  ****    0 ROOT
