@<TRIPOS>MOLECULE
UN9
   27    28     1     0     0
SMALL
No Charge or Current Charge


@<TRIPOS>ATOM
      1 O18        -36.3870   -17.0600     3.3410 o          1 UN9      -0.725000
      2 C16        -36.3160   -17.4570     4.4960 c          1 UN9       0.706000
      3 O17        -35.8820   -16.7790     5.4160 o          1 UN9      -0.725000
      4 C15        -36.8620   -18.8750     4.8200 c3         1 UN9      -0.060000
      5 N14        -38.2920   -19.0200     4.4560 ns         1 UN9      -0.490900
      6 C12        -39.0900   -20.1080     4.7600 c          1 UN9       0.493600
      7 O13        -38.6050   -21.0470     5.3890 o          1 UN9      -0.596100
      8 C9         -40.5650   -20.1030     4.2900 ca         1 UN9       0.200500
      9 N8         -41.2740   -21.2370     4.5690 nb         1 UN9      -0.585000
     10 C7         -42.5640   -21.3250     4.1960 ca         1 UN9       0.421000
     11 Cl1        -43.3400   -22.8490     4.6270 cl         1 UN9      -0.203000
     12 C2         -43.2460   -20.2930     3.5140 ca         1 UN9      -0.045000
     13 C10        -41.1770   -18.9980     3.6080 ca         1 UN9       0.156100
     14 O19        -40.4790   -17.8420     3.3380 oh         1 UN9      -0.535100
     15 C3         -42.5400   -19.1040     3.2100 ca         1 UN9      -0.047000
     16 C4         -43.2140   -18.0660     2.5170 ca         1 UN9      -0.066000
     17 C5         -44.5600   -18.2110     2.1450 ca         1 UN9      -0.121000
     18 C6         -45.2540   -19.3880     2.4540 ca         1 UN9      -0.104000
     19 C1         -44.6020   -20.4270     3.1340 ca         1 UN9      -0.092000
     20 H151       -36.2690   -19.6100     4.2610 h1         1 UN9       0.042200
     21 H152       -36.7400   -19.0660     5.8940 h1         1 UN9       0.042200
     22 HN14       -38.7350   -18.2720     3.9260 hn         1 UN9       0.343500
     23 HO19       -41.0940   -17.1600     2.9960 ho         1 UN9       0.512000
     24 H4         -42.7160   -17.1380     2.2490 ha         1 UN9       0.137000
     25 H5         -45.0660   -17.4080     1.6140 ha         1 UN9       0.110000
     26 H6         -46.2970   -19.4980     2.1640 ha         1 UN9       0.108000
     27 H1         -45.1640   -21.3310     3.3590 ha         1 UN9       0.124000
@<TRIPOS>BOND
     1     1     2 1   
     2     2     3 1   
     3     2     4 1   
     4     4     5 1   
     5     4    20 1   
     6     4    21 1   
     7     5     6 1   
     8     5    22 1   
     9     6     7 2   
    10     6     8 1   
    11     8     9 ar  
    12     8    13 ar  
    13     9    10 ar  
    14    10    11 1   
    15    10    12 ar  
    16    12    15 ar  
    17    12    19 ar  
    18    13    14 1   
    19    13    15 ar  
    20    14    23 1   
    21    15    16 ar  
    22    16    17 ar  
    23    16    24 1   
    24    17    18 ar  
    25    17    25 1   
    26    18    19 ar  
    27    18    26 1   
    28    19    27 1   
@<TRIPOS>SUBSTRUCTURE
     1 UN9         1 TEMP              0 ****  ****    0 ROOT
