@<TRIPOS>MOLECULE
UN9
   27    28     1     0     0
SMALL
abcg2


@<TRIPOS>ATOM
      1 O18        -36.8020   -17.6880     2.8450 o          1 UN9      -0.725000
      2 C16        -36.2880   -17.8540     3.9790 c          1 UN9       0.706000
      3 O17        -35.1690   -17.4560     4.3740 o          1 UN9      -0.725000
      4 C15        -37.1130   -18.6520     5.0110 c3         1 UN9      -0.060000
      5 N14        -38.4370   -18.9260     4.4860 ns         1 UN9      -0.490900
      6 C12        -39.3200   -19.7510     5.0880 c          1 UN9       0.493600
      7 O13        -39.0940   -20.3190     6.1550 o          1 UN9      -0.596100
      8 C9         -40.6470   -19.8900     4.3990 ca         1 UN9       0.200500
      9 N8         -41.1990   -21.1330     4.4490 nb         1 UN9      -0.585000
     10 C7         -42.3620   -21.3420     3.9380 ca         1 UN9       0.421000
     11 CL1        -42.9730   -22.9930     4.0350 cl         1 UN9      -0.203000
     12 C2         -43.1700   -20.3440     3.3210 ca         1 UN9      -0.045000
     13 C10        -41.3210   -18.8230     3.8340 ca         1 UN9       0.156100
     14 O19        -40.8520   -17.5570     3.7870 oh         1 UN9      -0.535100
     15 C3         -42.6180   -19.0340     3.2800 ca         1 UN9      -0.047000
     16 C4         -43.3650   -17.9860     2.7000 ca         1 UN9      -0.066000
     17 C5         -44.6100   -18.2350     2.1750 ca         1 UN9      -0.121000
     18 C6         -45.1550   -19.5330     2.2130 ca         1 UN9      -0.104000
     19 C1         -44.4500   -20.5690     2.7760 ca         1 UN9      -0.092000
     20 H151       -36.5830   -19.5820     5.2360 h1         1 UN9       0.042200
     21 H152       -37.1810   -18.0840     5.9400 h1         1 UN9       0.042200
     22 HN14       -38.5080   -18.7190     3.4940 hn         1 UN9       0.343500
     23 HO19       -39.9840   -17.5040     4.2210 ho         1 UN9       0.512000
     24 H4         -42.9440   -16.9920     2.6720 ha         1 UN9       0.137000
     25 H5         -45.1780   -17.4290     1.7300 ha         1 UN9       0.110000
     26 H6         -46.1370   -19.7130     1.7970 ha         1 UN9       0.108000
     27 H1         -44.8710   -21.5640     2.8060 ha         1 UN9       0.124000
@<TRIPOS>BOND
     1     1     2 1   
     2     2     3 1   
     3     2     4 1   
     4     4     5 1   
     5     4    20 1   
     6     4    21 1   
     7     5     6 1   
     8     5    22 1   
     9     6     7 2   
    10     6     8 1   
    11     8     9 ar  
    12     8    13 ar  
    13     9    10 ar  
    14    10    11 1   
    15    10    12 ar  
    16    12    15 ar  
    17    12    19 ar  
    18    13    14 1   
    19    13    15 ar  
    20    14    23 1   
    21    15    16 ar  
    22    16    17 ar  
    23    16    24 1   
    24    17    18 ar  
    25    17    25 1   
    26    18    19 ar  
    27    18    26 1   
    28    19    27 1   
@<TRIPOS>SUBSTRUCTURE
     1 UN9         1 TEMP              0 ****  ****    0 ROOT
