@<TRIPOS>MOLECULE
UNA
   34    33     1     0     0
SMALL
No Charge or Current Charge


@<TRIPOS>ATOM
      1 C11         -0.4590     0.0590     7.0180 c3         1 UNA      -0.089100
      2 C10          0.4090     0.0860     5.7450 c3         1 UNA      -0.074400
      3 C9          -0.4200    -0.0050     4.4450 c3         1 UNA      -0.075400
      4 C8           0.4500     0.0220     3.1700 c3         1 UNA      -0.074400
      5 C7          -0.3790    -0.0700     1.8700 c3         1 UNA      -0.074400
      6 C6           0.4910    -0.0420     0.5940 c3         1 UNA      -0.074400
      7 C5          -0.3380    -0.1340    -0.7050 c3         1 UNA      -0.074400
      8 C4           0.5320    -0.1060    -1.9810 c3         1 UNA      -0.075400
      9 C3          -0.2970    -0.1980    -3.2800 c3         1 UNA      -0.067400
     10 C2           0.5770    -0.1680    -4.5560 c3         1 UNA      -0.204400
     11 C1          -0.2730    -0.2810    -5.8250 c          1 UNA       0.574900
     12 O1          -0.8210     0.6800    -6.3530 o          1 UNA      -0.513100
     13 H113        -1.0360    -0.8720     7.0740 hc         1 UNA       0.031367
     14 H112         0.1720     0.1260     7.9120 hc         1 UNA       0.031367
     15 H111        -1.1600     0.9020     7.0280 hc         1 UNA       0.031367
     16 H102         0.9990     1.0110     5.7360 hc         1 UNA       0.036700
     17 H101         1.1210    -0.7480     5.7820 hc         1 UNA       0.036700
     18 H92         -1.0100    -0.9310     4.4590 hc         1 UNA       0.037200
     19 H91         -1.1330     0.8280     4.4130 hc         1 UNA       0.037200
     20 H82          1.0400     0.9470     3.1560 hc         1 UNA       0.037200
     21 H81          1.1630    -0.8120     3.2020 hc         1 UNA       0.037200
     22 H72         -0.9690    -0.9950     1.8840 hc         1 UNA       0.037200
     23 H71         -1.0910     0.7640     1.8380 hc         1 UNA       0.037200
     24 H62          1.0810     0.8830     0.5810 hc         1 UNA       0.038200
     25 H61          1.2040    -0.8760     0.6270 hc         1 UNA       0.038200
     26 H52         -0.9280    -1.0590    -0.6910 hc         1 UNA       0.038700
     27 H51         -1.0510     0.7000    -0.7370 hc         1 UNA       0.038700
     28 H42          1.1220     0.8190    -1.9940 hc         1 UNA       0.040200
     29 H41          1.2450    -0.9400    -1.9480 hc         1 UNA       0.040200
     30 H32         -0.8870    -1.1230    -3.2670 hc         1 UNA       0.042700
     31 H31         -1.0100     0.6360    -3.3120 hc         1 UNA       0.042700
     32 H22          1.1460     0.7690    -4.5830 hc         1 UNA       0.067200
     33 H21          1.2520    -1.0320    -4.5170 hc         1 UNA       0.067200
     34 H1          -0.3840    -1.3070    -6.2400 h4         1 UNA      -0.021800
@<TRIPOS>BOND
     1     1     2 1   
     2     1    13 1   
     3     1    14 1   
     4     1    15 1   
     5     2     3 1   
     6     2    16 1   
     7     2    17 1   
     8     3     4 1   
     9     3    18 1   
    10     3    19 1   
    11     4     5 1   
    12     4    20 1   
    13     4    21 1   
    14     5     6 1   
    15     5    22 1   
    16     5    23 1   
    17     6     7 1   
    18     6    24 1   
    19     6    25 1   
    20     7     8 1   
    21     7    26 1   
    22     7    27 1   
    23     8     9 1   
    24     8    28 1   
    25     8    29 1   
    26     9    10 1   
    27     9    30 1   
    28     9    31 1   
    29    10    11 1   
    30    10    32 1   
    31    10    33 1   
    32    11    12 2   
    33    11    34 1   
@<TRIPOS>SUBSTRUCTURE
     1 UNA         1 TEMP              0 ****  ****    0 ROOT
