@<TRIPOS>MOLECULE
UNA
   34    33     1     0     0
SMALL
abcg2


@<TRIPOS>ATOM
      1 C11         -0.4550     0.0380     6.9340 c3         1 UNA      -0.089100
      2 C10          0.4140     0.0670     5.6840 c3         1 UNA      -0.074400
      3 C9          -0.4020    -0.0120     4.3990 c3         1 UNA      -0.075400
      4 C8           0.4520     0.0200     3.1370 c3         1 UNA      -0.074400
      5 C7          -0.3670    -0.0740     1.8560 c3         1 UNA      -0.074400
      6 C6           0.4830    -0.0290     0.5920 c3         1 UNA      -0.074400
      7 C5          -0.3380    -0.1350    -0.6870 c3         1 UNA      -0.074400
      8 C4           0.5120    -0.0730    -1.9490 c3         1 UNA      -0.075400
      9 C3          -0.3120    -0.1880    -3.2250 c3         1 UNA      -0.067400
     10 C2           0.5550    -0.1060    -4.4840 c3         1 UNA      -0.204400
     11 C1          -0.2590    -0.3100    -5.7210 c          1 UNA       0.574900
     12 O1          -0.3020     0.4420    -6.6630 o          1 UNA      -0.513100
     13 H113        -1.0470    -0.8780     6.9790 hc         1 UNA       0.031367
     14 H112         0.1440     0.0880     7.8440 hc         1 UNA       0.031367
     15 H111        -1.1500     0.8800     6.9490 hc         1 UNA       0.031367
     16 H102         1.0170     0.9800     5.6760 hc         1 UNA       0.036700
     17 H101         1.1250    -0.7650     5.7120 hc         1 UNA       0.036700
     18 H92         -1.0020    -0.9280     4.4070 hc         1 UNA       0.037200
     19 H91         -1.1170     0.8180     4.3730 hc         1 UNA       0.037200
     20 H82          1.0450     0.9420     3.1230 hc         1 UNA       0.037200
     21 H81          1.1750    -0.8030     3.1670 hc         1 UNA       0.037200
     22 H72         -0.9520    -1.0000     1.8670 hc         1 UNA       0.037200
     23 H71         -1.0970     0.7440     1.8300 hc         1 UNA       0.037200
     24 H62          1.0610     0.9020     0.5770 hc         1 UNA       0.038200
     25 H61          1.2180    -0.8410     0.6210 hc         1 UNA       0.038200
     26 H52         -0.9060    -1.0720    -0.6770 hc         1 UNA       0.038700
     27 H51         -1.0810     0.6690    -0.7100 hc         1 UNA       0.038700
     28 H42          1.0750     0.8670    -1.9630 hc         1 UNA       0.040200
     29 H41          1.2590    -0.8740    -1.9280 hc         1 UNA       0.040200
     30 H32         -0.8620    -1.1340    -3.2200 hc         1 UNA       0.042700
     31 H31         -1.0640     0.6070    -3.2480 hc         1 UNA       0.042700
     32 H22          1.0900     0.8440    -4.5360 hc         1 UNA       0.067200
     33 H21          1.3000    -0.9100    -4.4530 hc         1 UNA       0.067200
     34 H1          -0.8530    -1.2430    -5.7210 h4         1 UNA      -0.021800
@<TRIPOS>BOND
     1     1     2 1   
     2     1    13 1   
     3     1    14 1   
     4     1    15 1   
     5     2     3 1   
     6     2    16 1   
     7     2    17 1   
     8     3     4 1   
     9     3    18 1   
    10     3    19 1   
    11     4     5 1   
    12     4    20 1   
    13     4    21 1   
    14     5     6 1   
    15     5    22 1   
    16     5    23 1   
    17     6     7 1   
    18     6    24 1   
    19     6    25 1   
    20     7     8 1   
    21     7    26 1   
    22     7    27 1   
    23     8     9 1   
    24     8    28 1   
    25     8    29 1   
    26     9    10 1   
    27     9    30 1   
    28     9    31 1   
    29    10    11 1   
    30    10    32 1   
    31    10    33 1   
    32    11    12 2   
    33    11    34 1   
@<TRIPOS>SUBSTRUCTURE
     1 UNA         1 TEMP              0 ****  ****    0 ROOT
