@<TRIPOS>MOLECULE
UNB
   62    65     1     0     0
SMALL
No Charge or Current Charge


@<TRIPOS>ATOM
      1 C1           4.5510     0.0750     0.5290 ca         1 UNB       0.059000
      2 C2           3.9920     0.6950     1.6860 ca         1 UNB      -0.280500
      3 C3           5.4540     0.8150    -0.2800 ca         1 UNB      -0.061000
      4 C4           4.2420    -1.2520     0.1370 ca         1 UNB      -0.115000
      5 S5           2.8100    -0.1190     2.7880 sy         1 UNB       1.130600
      6 C6           4.3450     2.0280     1.9970 ca         1 UNB       0.006000
      7 C7           5.7940     2.1380     0.0530 ca         1 UNB      -0.042000
      8 C8           6.0230     0.2400    -1.4340 ca         1 UNB      -0.092000
      9 C9           4.8120    -1.8180    -1.0170 ca         1 UNB      -0.082000
     10 N10          1.4830    -0.5010     1.8320 nu         1 UNB      -0.844100
     11 O11          2.2890     0.8260     3.7800 o          1 UNB      -0.536000
     12 O12          3.3110    -1.4410     3.1700 o          1 UNB      -0.536000
     13 C13          5.2400     2.7400     1.1870 ca         1 UNB      -0.143000
     14 C14          5.7030    -1.0740    -1.8020 ca         1 UNB      -0.112000
     15 C15          0.8900     0.2590     0.8140 ca         1 UNB       0.174000
     16 C16          0.3740    -0.3990    -0.3310 ca         1 UNB       0.159100
     17 C17          0.7950     1.6580     0.9020 ca         1 UNB      -0.035000
     18 C18         -0.2080     0.3380    -1.3970 ca         1 UNB      -0.175300
     19 O19          0.4400    -1.7710    -0.3990 oh         1 UNB      -0.576100
     20 C20          0.1980     2.3920    -0.1330 ca         1 UNB      -0.148000
     21 C21         -0.3040     1.7510    -1.2810 ca         1 UNB      -0.026300
     22 C22         -0.6940    -0.4020    -2.6640 c3         1 UNB      -0.114100
     23 C23         -0.9400     2.6170    -2.3660 c3         1 UNB      -0.052800
     24 C24         -1.9060    -1.2870    -2.3680 c          1 UNB       0.604100
     25 N25         -3.1150    -0.8320    -2.8380 ns         1 UNB      -0.477900
     26 O26         -1.7890    -2.3250    -1.7300 o          1 UNB      -0.640100
     27 C27         -4.4000    -1.4850    -2.5910 c3         1 UNB       0.141300
     28 C28         -5.1080    -0.8630    -1.3970 ca         1 UNB      -0.109300
     29 C29         -6.0600     0.1550    -1.5830 ca         1 UNB      -0.105000
     30 C30         -4.8160    -1.2980    -0.0930 ca         1 UNB      -0.105000
     31 C31         -6.7090     0.7330    -0.4780 ca         1 UNB      -0.079500
     32 C32         -5.4610    -0.7210     1.0150 ca         1 UNB      -0.079500
     33 C33         -6.4070     0.3180     0.8410 ca         1 UNB      -0.135900
     34 C34         -7.1310     0.9220     2.0100 ce         1 UNB       0.657800
     35 N35         -6.5520     0.8480     3.2280 nv         1 UNB      -1.074200
     36 N36         -8.2120     1.5790     1.8980 n2         1 UNB      -0.826100
     37 H4           3.5610    -1.8740     0.7040 ha         1 UNB       0.130000
     38 H6           3.9300     2.5260     2.8720 ha         1 UNB       0.142000
     39 H7           6.4860     2.7010    -0.5690 ha         1 UNB       0.113000
     40 H8           6.7140     0.8130    -2.0490 ha         1 UNB       0.111000
     41 H9           4.5610    -2.8370    -1.3010 ha         1 UNB       0.117000
     42 H10          1.5560    -1.4900     1.6380 hn         1 UNB       0.497000
     43 H13          5.5030     3.7650     1.4410 ha         1 UNB       0.118000
     44 H14          6.1430    -1.5140    -2.6940 ha         1 UNB       0.116000
     45 H17          1.1690     2.1830     1.7760 ha         1 UNB       0.146000
     46 H19         -0.3500    -2.0810    -0.9210 ho         1 UNB       0.522000
     47 H20          0.1290     3.4730    -0.0370 ha         1 UNB       0.121000
     48 H221        -0.9490     0.2920    -3.4700 hc         1 UNB       0.074200
     49 H222         0.1140    -1.0470    -3.0290 hc         1 UNB       0.074200
     50 H231        -0.3550     2.5830    -3.2930 hc         1 UNB       0.043700
     51 H232        -1.9600     2.2850    -2.5910 hc         1 UNB       0.043700
     52 H233        -1.0050     3.6690    -2.0640 hc         1 UNB       0.043700
     53 H25         -3.1110     0.0470    -3.3410 hn         1 UNB       0.318500
     54 H271        -5.0250    -1.3840    -3.4890 h1         1 UNB       0.070700
     55 H272        -4.2470    -2.5590    -2.4170 h1         1 UNB       0.070700
     56 H29         -6.3010     0.5010    -2.5860 ha         1 UNB       0.120500
     57 H30         -4.0860    -2.0900     0.0650 ha         1 UNB       0.120500
     58 H31         -7.4440     1.5170    -0.6500 ha         1 UNB       0.130500
     59 H32         -5.2270    -1.0990     2.0070 ha         1 UNB       0.130500
     60 H351        -6.8030     1.5830     3.8790 hn         1 UNB       0.461500
     61 H352        -5.5710     0.5950     3.2270 hn         1 UNB       0.461500
     62 H36         -8.6090     1.6960     2.8360 hn         1 UNB       0.372400
@<TRIPOS>BOND
     1     1     2 ar  
     2     1     3 ar  
     3     1     4 ar  
     4     2     5 1   
     5     2     6 ar  
     6     3     7 ar  
     7     3     8 ar  
     8     4     9 ar  
     9     4    37 1   
    10     5    10 1   
    11     5    11 2   
    12     5    12 2   
    13     6    13 ar  
    14     6    38 1   
    15     7    13 ar  
    16     7    39 1   
    17     8    14 ar  
    18     8    40 1   
    19     9    14 ar  
    20     9    41 1   
    21    10    15 1   
    22    10    42 1   
    23    13    43 1   
    24    14    44 1   
    25    15    16 ar  
    26    15    17 ar  
    27    16    18 ar  
    28    16    19 1   
    29    17    20 ar  
    30    17    45 1   
    31    18    21 ar  
    32    18    22 1   
    33    19    46 1   
    34    20    21 ar  
    35    20    47 1   
    36    21    23 1   
    37    22    24 1   
    38    22    48 1   
    39    22    49 1   
    40    23    50 1   
    41    23    51 1   
    42    23    52 1   
    43    24    25 1   
    44    24    26 2   
    45    25    27 1   
    46    25    53 1   
    47    27    28 1   
    48    27    54 1   
    49    27    55 1   
    50    28    29 ar  
    51    28    30 ar  
    52    29    31 ar  
    53    29    56 1   
    54    30    32 ar  
    55    30    57 1   
    56    31    33 ar  
    57    31    58 1   
    58    32    33 ar  
    59    32    59 1   
    60    33    34 1   
    61    34    35 1   
    62    34    36 2   
    63    35    60 1   
    64    35    61 1   
    65    36    62 1   
@<TRIPOS>SUBSTRUCTURE
     1 UNB         1 TEMP              0 ****  ****    0 ROOT
