@<TRIPOS>MOLECULE
UNB
   62    65     1     0     0
SMALL
bcc


@<TRIPOS>ATOM
      1 C1           4.3370    -0.6130     0.2130 ca         1 UNB       0.059000
      2 C2           4.0770     0.5540     0.9910 ca         1 UNB      -0.280500
      3 C3           4.8200    -0.4110    -1.1090 ca         1 UNB      -0.061000
      4 C4           4.1410    -1.9460     0.6480 ca         1 UNB      -0.133000
      5 S5           3.4030     0.4690     2.6350 sy         1 UNB       1.272200
      6 C6           4.2750     1.8130     0.4860 ca         1 UNB      -0.012000
      7 C7           5.0190     0.8990    -1.6000 ca         1 UNB      -0.060000
      8 C8           5.0940    -1.5250    -1.9370 ca         1 UNB      -0.110000
      9 C9           4.4120    -3.0020    -0.1800 ca         1 UNB      -0.100000
     10 N10          1.7990     0.0540     2.4610 nu         1 UNB      -0.650500
     11 O11          3.4290     1.8100     3.1900 o          1 UNB      -0.606800
     12 O12          4.0210    -0.6130     3.3850 o          1 UNB      -0.606800
     13 C13          4.7540     1.9890    -0.8230 ca         1 UNB      -0.161000
     14 C14          4.8940    -2.7990    -1.4860 ca         1 UNB      -0.130000
     15 C15          1.0060     0.8980     1.6390 ca         1 UNB       0.035600
     16 C16          0.7190     0.5170     0.3230 ca         1 UNB       0.159100
     17 C17          0.5060     2.0900     2.1350 ca         1 UNB      -0.053000
     18 C18         -0.0260     1.3650    -0.5060 ca         1 UNB      -0.175300
     19 O19          1.1910    -0.6660    -0.0940 oh         1 UNB      -0.537100
     20 C20         -0.2640     2.9090     1.3270 ca         1 UNB      -0.166000
     21 C21         -0.5390     2.5610     0.0070 ca         1 UNB      -0.026300
     22 C22         -0.2130     0.9900    -1.9600 c3         1 UNB      -0.114100
     23 C23         -1.3770     3.4750    -0.8410 c3         1 UNB      -0.052800
     24 C24         -1.1610    -0.1790    -2.0940 c          1 UNB       0.671100
     25 N25         -2.3480     0.0690    -2.6440 ns         1 UNB      -0.544900
     26 O26         -0.8290    -1.2950    -1.6780 o          1 UNB      -0.640100
     27 C27         -3.4240    -0.8960    -2.7480 c3         1 UNB       0.141300
     28 C28         -4.4830    -0.6720    -1.6980 ca         1 UNB      -0.109300
     29 C29         -5.7870    -0.3550    -2.0610 ca         1 UNB      -0.123000
     30 C30         -4.1710    -0.7650    -0.3440 ca         1 UNB      -0.123000
     31 C31         -6.7590    -0.1360    -1.0970 ca         1 UNB      -0.097500
     32 C32         -5.1370    -0.5350     0.6210 ca         1 UNB      -0.097500
     33 C33         -6.4450    -0.2140     0.2560 ca         1 UNB      -0.135900
     34 C34         -7.5060     0.0300     1.2710 ce         1 UNB       0.657800
     35 N35         -7.0590     0.4390     2.4950 nv         1 UNB      -0.963800
     36 N36         -8.7220    -0.1980     0.9520 n2         1 UNB      -0.826100
     37 H4           3.7890    -2.1610     1.6440 ha         1 UNB       0.148000
     38 H6           4.0690     2.6870     1.0870 ha         1 UNB       0.160000
     39 H7           5.3860     1.0270    -2.6110 ha         1 UNB       0.131000
     40 H8           5.4640    -1.3470    -2.9390 ha         1 UNB       0.129000
     41 H9           4.2510    -4.0100     0.1790 ha         1 UNB       0.135000
     42 H10          1.6850    -0.9380     2.2710 hn         1 UNB       0.441800
     43 H13          4.9060     2.9900    -1.2020 ha         1 UNB       0.136000
     44 H14          5.1030    -3.6470    -2.1230 ha         1 UNB       0.134000
     45 H17          0.7030     2.3650     3.1620 ha         1 UNB       0.164000
     46 H19          0.5790    -1.0450    -0.7690 ho         1 UNB       0.483000
     47 H20         -0.6620     3.8320     1.7290 ha         1 UNB       0.139000
     48 H221        -0.5510     1.8480    -2.5360 hc         1 UNB       0.074200
     49 H222         0.7460     0.6890    -2.3920 hc         1 UNB       0.074200
     50 H231        -0.8190     3.8630    -1.6960 hc         1 UNB       0.043700
     51 H232        -2.2580     2.9650    -1.2360 hc         1 UNB       0.043700
     52 H233        -1.7260     4.3290    -0.2630 hc         1 UNB       0.043700
     53 H25         -2.5500     1.0100    -2.9430 hn         1 UNB       0.318500
     54 H271        -3.8600    -0.8180    -3.7440 h1         1 UNB       0.070700
     55 H272        -2.9990    -1.8950    -2.6610 h1         1 UNB       0.070700
     56 H29         -6.0480    -0.2690    -3.1090 ha         1 UNB       0.138500
     57 H30         -3.1670    -1.0300    -0.0340 ha         1 UNB       0.138500
     58 H31         -7.7690     0.1140    -1.3940 ha         1 UNB       0.148500
     59 H32         -4.8640    -0.6320     1.6650 ha         1 UNB       0.148500
     60 H351        -7.7510     0.7530     3.1570 hn         1 UNB       0.406300
     61 H352        -6.1980     0.9610     2.5390 hn         1 UNB       0.406300
     62 H36         -9.3520     0.0390     1.7140 hn         1 UNB       0.372400
@<TRIPOS>BOND
     1     1     2 ar  
     2     1     3 ar  
     3     1     4 ar  
     4     2     5 1   
     5     2     6 ar  
     6     3     7 ar  
     7     3     8 ar  
     8     4     9 ar  
     9     4    37 1   
    10     5    10 1   
    11     5    11 2   
    12     5    12 2   
    13     6    13 ar  
    14     6    38 1   
    15     7    13 ar  
    16     7    39 1   
    17     8    14 ar  
    18     8    40 1   
    19     9    14 ar  
    20     9    41 1   
    21    10    15 1   
    22    10    42 1   
    23    13    43 1   
    24    14    44 1   
    25    15    16 ar  
    26    15    17 ar  
    27    16    18 ar  
    28    16    19 1   
    29    17    20 ar  
    30    17    45 1   
    31    18    21 ar  
    32    18    22 1   
    33    19    46 1   
    34    20    21 ar  
    35    20    47 1   
    36    21    23 1   
    37    22    24 1   
    38    22    48 1   
    39    22    49 1   
    40    23    50 1   
    41    23    51 1   
    42    23    52 1   
    43    24    25 1   
    44    24    26 2   
    45    25    27 1   
    46    25    53 1   
    47    27    28 1   
    48    27    54 1   
    49    27    55 1   
    50    28    29 ar  
    51    28    30 ar  
    52    29    31 ar  
    53    29    56 1   
    54    30    32 ar  
    55    30    57 1   
    56    31    33 ar  
    57    31    58 1   
    58    32    33 ar  
    59    32    59 1   
    60    33    34 1   
    61    34    35 1   
    62    34    36 2   
    63    35    60 1   
    64    35    61 1   
    65    36    62 1   
@<TRIPOS>SUBSTRUCTURE
     1 UNB         1 TEMP              0 ****  ****    0 ROOT
