@<TRIPOS>MOLECULE
UNC
   16    16     1     0     0
SMALL
No Charge or Current Charge


@<TRIPOS>ATOM
      1 OD2          2.4200    -1.8110     0.0510 o          1 UNC      -0.421000
      2 N4           2.1220    -0.6060     0.0310 no         1 UNC       0.695100
      3 OD1          2.9590     0.3060     0.0110 o          1 UNC      -0.421000
      4 C4           0.6980    -0.2530     0.0310 cc         1 UNC      -0.196500
      5 N3          -0.1940    -1.3500     0.0550 ns         1 UNC      -0.505600
      6 C2          -1.5590    -1.2960     0.0600 c          1 UNC       0.629000
      7 O2          -2.2540    -2.2930     0.0820 o          1 UNC      -0.537000
      8 C5           0.1210     1.0090     0.0110 cd         1 UNC       0.162800
      9 N5           0.8280     2.2030    -0.0150 nv         1 UNC      -0.911000
     10 C6          -1.3940     1.1480     0.0150 c          1 UNC       0.565200
     11 O6          -1.9990     2.2140    -0.0010 o          1 UNC      -0.516000
     12 N1          -2.0710    -0.0400     0.0400 ns         1 UNC      -0.457500
     13 HN3          0.1730    -2.3020     0.0710 hn         1 UNC       0.494000
     14 HN51         1.8480     2.2080    -0.0190 hn         1 UNC       0.531000
     15 HN52         0.3450     3.1030    -0.0280 hn         1 UNC       0.531000
     16 HN1         -3.0760     0.0230     0.0430 hn         1 UNC       0.356500
@<TRIPOS>BOND
     1     1     2 1   
     2     2     3 1   
     3     2     4 1   
     4     4     5 1   
     5     4     8 2   
     6     5     6 1   
     7     5    13 1   
     8     6     7 2   
     9     6    12 1   
    10     8     9 1   
    11     8    10 1   
    12     9    14 1   
    13     9    15 1   
    14    10    11 2   
    15    10    12 1   
    16    12    16 1   
@<TRIPOS>SUBSTRUCTURE
     1 UNC         1 TEMP              0 ****  ****    0 ROOT
