@<TRIPOS>MOLECULE
UNC
   16    16     1     0     0
SMALL
bcc


@<TRIPOS>ATOM
      1 OD2          2.3600    -1.7420     0.0480 o          1 UNC      -0.231000
      2 N4           2.0270    -0.5700     0.0300 no         1 UNC       0.315100
      3 OD1          2.8240     0.3550     0.0110 o          1 UNC      -0.231000
      4 C4           0.6540    -0.2740     0.0320 cc         1 UNC      -0.196500
      5 N3          -0.1830    -1.3810     0.0570 ns         1 UNC      -0.459100
      6 C2          -1.5290    -1.3160     0.0600 c          1 UNC       0.838500
      7 O2          -2.2640    -2.2810     0.0810 o          1 UNC      -0.612500
      8 C5           0.1610     1.0030     0.0110 cd         1 UNC       0.162800
      9 N5           0.8160     2.1530    -0.0140 nv         1 UNC      -0.800600
     10 C6          -1.3270     1.1410     0.0150 c          1 UNC       0.707700
     11 O6          -1.8550     2.2300    -0.0010 o          1 UNC      -0.591500
     12 N1          -2.0280    -0.0230     0.0380 ns         1 UNC      -0.591500
     13 HN3          0.2420    -2.2980     0.0720 hn         1 UNC       0.380500
     14 HN51         1.8190     2.1940    -0.0180 hn         1 UNC       0.475800
     15 HN52         0.2890     3.0120    -0.0270 hn         1 UNC       0.475800
     16 HN1         -3.0380     0.0580     0.0420 hn         1 UNC       0.356500
@<TRIPOS>BOND
     1     1     2 1   
     2     2     3 1   
     3     2     4 1   
     4     4     5 1   
     5     4     8 2   
     6     5     6 1   
     7     5    13 1   
     8     6     7 2   
     9     6    12 1   
    10     8     9 1   
    11     8    10 1   
    12     9    14 1   
    13     9    15 1   
    14    10    11 2   
    15    10    12 1   
    16    12    16 1   
@<TRIPOS>SUBSTRUCTURE
     1 UNC         1 TEMP              0 ****  ****    0 ROOT
