@<TRIPOS>MOLECULE
UND
   35    34     1     0     0
SMALL
abcg2


@<TRIPOS>ATOM
      1 C1          -0.3960     0.0180     6.3540 c3         1 UND      -0.088100
      2 C2           0.4660     0.0140     5.0990 c3         1 UND      -0.074900
      3 C3          -0.3590     0.0130     3.8180 c3         1 UND      -0.075400
      4 C4           0.4870     0.0160     2.5510 c3         1 UND      -0.074400
      5 C5          -0.3450     0.0130     1.2740 c3         1 UND      -0.074400
      6 C6           0.4970     0.0150     0.0040 c3         1 UND      -0.074400
      7 C7          -0.3400     0.0130    -1.2700 c3         1 UND      -0.074400
      8 C8           0.4960     0.0150    -2.5430 c3         1 UND      -0.074400
      9 C9          -0.3460     0.0150    -3.8130 c3         1 UND      -0.075400
     10 C10          0.4840     0.0160    -5.0910 c3         1 UND      -0.074900
     11 C11         -0.3750     0.0160    -6.3490 c3         1 UND      -0.088100
     12 H11         -1.0430    -0.8600     6.3880 hc         1 UND       0.031367
     13 H12          0.2090     0.0180     7.2610 hc         1 UND       0.031367
     14 H13         -1.0380     0.9010     6.3850 hc         1 UND       0.031367
     15 H21          1.1270     0.8860     5.1030 hc         1 UND       0.036700
     16 H22          1.1220    -0.8630     5.1060 hc         1 UND       0.036700
     17 H31         -1.0170    -0.8630     3.8130 hc         1 UND       0.036700
     18 H32         -1.0210     0.8870     3.8140 hc         1 UND       0.036700
     19 H41          1.1430     0.8940     2.5540 hc         1 UND       0.036700
     20 H42          1.1490    -0.8570     2.5550 hc         1 UND       0.036700
     21 H51         -1.0020    -0.8640     1.2720 hc         1 UND       0.036700
     22 H52         -1.0070     0.8860     1.2710 hc         1 UND       0.036700
     23 H61          1.1550     0.8910     0.0050 hc         1 UND       0.036700
     24 H62          1.1570    -0.8600     0.0050 hc         1 UND       0.036700
     25 H71         -0.9980    -0.8630    -1.2700 hc         1 UND       0.036700
     26 H72         -1.0010     0.8880    -1.2690 hc         1 UND       0.036700
     27 H81          1.1550     0.8910    -2.5440 hc         1 UND       0.036700
     28 H82          1.1570    -0.8600    -2.5450 hc         1 UND       0.036700
     29 H91         -1.0060    -0.8600    -3.8110 hc         1 UND       0.036700
     30 H92         -1.0060     0.8900    -3.8100 hc         1 UND       0.036700
     31 H101         1.1410     0.8910    -5.0950 hc         1 UND       0.036700
     32 H102         1.1430    -0.8580    -5.0960 hc         1 UND       0.036700
     33 H111         0.2330     0.0170    -7.2540 hc         1 UND       0.031367
     34 H112        -1.0180    -0.8660    -6.3840 hc         1 UND       0.031367
     35 H113        -1.0210     0.8950    -6.3830 hc         1 UND       0.031367
@<TRIPOS>BOND
     1     1     2 1   
     2     1    12 1   
     3     1    13 1   
     4     1    14 1   
     5     2     3 1   
     6     2    15 1   
     7     2    16 1   
     8     3     4 1   
     9     3    17 1   
    10     3    18 1   
    11     4     5 1   
    12     4    19 1   
    13     4    20 1   
    14     5     6 1   
    15     5    21 1   
    16     5    22 1   
    17     6     7 1   
    18     6    23 1   
    19     6    24 1   
    20     7     8 1   
    21     7    25 1   
    22     7    26 1   
    23     8     9 1   
    24     8    27 1   
    25     8    28 1   
    26     9    10 1   
    27     9    29 1   
    28     9    30 1   
    29    10    11 1   
    30    10    31 1   
    31    10    32 1   
    32    11    33 1   
    33    11    34 1   
    34    11    35 1   
@<TRIPOS>SUBSTRUCTURE
     1 UND         1 TEMP              0 ****  ****    0 ROOT
