@<TRIPOS>MOLECULE
UND
   35    34     1     0     0
SMALL
No Charge or Current Charge


@<TRIPOS>ATOM
      1 C1          -0.3760     0.0150     6.4400 c3         1 UND      -0.088100
      2 C2           0.4760     0.0160     5.1570 c3         1 UND      -0.074900
      3 C3          -0.3740     0.0150     3.8670 c3         1 UND      -0.075400
      4 C4           0.4800     0.0150     2.5800 c3         1 UND      -0.074400
      5 C5          -0.3690     0.0150     1.2910 c3         1 UND      -0.074400
      6 C6           0.4850     0.0150     0.0040 c3         1 UND      -0.074400
      7 C7          -0.3650     0.0150    -1.2860 c3         1 UND      -0.074400
      8 C8           0.4890     0.0150    -2.5730 c3         1 UND      -0.074400
      9 C9          -0.3610     0.0150    -3.8620 c3         1 UND      -0.075400
     10 C10          0.4930     0.0150    -5.1490 c3         1 UND      -0.074900
     11 C11         -0.3540     0.0150    -6.4360 c3         1 UND      -0.088100
     12 H11         -1.0150    -0.8750     6.4820 hc         1 UND       0.031367
     13 H12          0.2690     0.0160     7.3270 hc         1 UND       0.031367
     14 H13         -1.0170     0.9040     6.4820 hc         1 UND       0.031367
     15 H21          1.1280     0.8980     5.1620 hc         1 UND       0.036700
     16 H22          1.1290    -0.8660     5.1620 hc         1 UND       0.036700
     17 H31         -1.0260    -0.8680     3.8660 hc         1 UND       0.036700
     18 H32         -1.0270     0.8960     3.8660 hc         1 UND       0.036700
     19 H41          1.1330     0.8980     2.5810 hc         1 UND       0.036700
     20 H42          1.1340    -0.8660     2.5810 hc         1 UND       0.036700
     21 H51         -1.0210    -0.8680     1.2890 hc         1 UND       0.036700
     22 H52         -1.0230     0.8960     1.2890 hc         1 UND       0.036700
     23 H61          1.1370     0.8980     0.0050 hc         1 UND       0.036700
     24 H62          1.1380    -0.8660     0.0050 hc         1 UND       0.036700
     25 H71         -1.0170    -0.8680    -1.2870 hc         1 UND       0.036700
     26 H72         -1.0180     0.8960    -1.2870 hc         1 UND       0.036700
     27 H81          1.1410     0.8980    -2.5710 hc         1 UND       0.036700
     28 H82          1.1430    -0.8660    -2.5710 hc         1 UND       0.036700
     29 H91         -1.0130    -0.8680    -3.8630 hc         1 UND       0.036700
     30 H92         -1.0140     0.8960    -3.8630 hc         1 UND       0.036700
     31 H101         1.1450     0.8970    -5.1520 hc         1 UND       0.036700
     32 H102         1.1470    -0.8660    -5.1520 hc         1 UND       0.036700
     33 H111         0.2940     0.0150    -7.3200 hc         1 UND       0.031367
     34 H112        -0.9930    -0.8760    -6.4790 hc         1 UND       0.031367
     35 H113        -0.9950     0.9040    -6.4790 hc         1 UND       0.031367
@<TRIPOS>BOND
     1     1     2 1   
     2     1    12 1   
     3     1    13 1   
     4     1    14 1   
     5     2     3 1   
     6     2    15 1   
     7     2    16 1   
     8     3     4 1   
     9     3    17 1   
    10     3    18 1   
    11     4     5 1   
    12     4    19 1   
    13     4    20 1   
    14     5     6 1   
    15     5    21 1   
    16     5    22 1   
    17     6     7 1   
    18     6    23 1   
    19     6    24 1   
    20     7     8 1   
    21     7    25 1   
    22     7    26 1   
    23     8     9 1   
    24     8    27 1   
    25     8    28 1   
    26     9    10 1   
    27     9    29 1   
    28     9    30 1   
    29    10    11 1   
    30    10    31 1   
    31    10    32 1   
    32    11    33 1   
    33    11    34 1   
    34    11    35 1   
@<TRIPOS>SUBSTRUCTURE
     1 UND         1 TEMP              0 ****  ****    0 ROOT
