@<TRIPOS>MOLECULE
UNE
   21    22     1     0     0
SMALL
abcg2


@<TRIPOS>ATOM
      1 O01         -2.2260     0.7680    -0.0020 os         1 UNE      -0.117200
      2 C02         -2.8450    -0.4460    -0.0010 cc         1 UNE       0.009900
      3 C03         -1.9400    -1.4530     0.0070 cd         1 UNE      -0.284200
      4 C04         -0.6470    -0.8370     0.0130 ca         1 UNE      -0.079800
      5 C05         -0.9040     0.5290     0.0070 ca         1 UNE       0.012100
      6 C06          0.1020     1.4970     0.0100 ca         1 UNE       0.155100
      7 C07          1.4090     1.0300     0.0200 ca         1 UNE      -0.210000
      8 C08          1.6630    -0.3520     0.0260 ca         1 UNE      -0.004900
      9 C09          0.6720    -1.3080     0.0230 ca         1 UNE      -0.080000
     10 BR10         3.4720    -0.9090     0.0370 br         1 UNE      -0.155100
     11 O11         -0.2750     2.7800     0.0040 os         1 UNE      -0.315100
     12 C12          0.7330     3.7770     0.0070 c3         1 UNE       0.150900
     13 C13         -4.3520    -0.4750    -0.0100 c          1 UNE       0.735200
     14 O14         -4.8460    -1.6160    -0.0070 o          1 UNE      -0.686500
     15 O15         -4.9260     0.6240    -0.0190 o          1 UNE      -0.686500
     16 H03         -2.1600    -2.5070     0.0110 ha         1 UNE       0.217000
     17 H07          2.2380     1.7230     0.0240 ha         1 UNE       0.115000
     18 H09          0.8900    -2.3670     0.0280 ha         1 UNE       0.124000
     19 H12          1.3570     3.7190     0.9010 h1         1 UNE       0.033367
     20 H12A         1.3680     3.7120    -0.8790 h1         1 UNE       0.033367
     21 H12B         0.2170     4.7330    -0.0000 h1         1 UNE       0.033367
@<TRIPOS>BOND
     1     1     2 1   
     2     1     5 1   
     3     2     3 2   
     4     2    13 1   
     5     3     4 1   
     6     3    16 1   
     7     4     5 ar  
     8     4     9 ar  
     9     5     6 ar  
    10     6     7 ar  
    11     6    11 1   
    12     7     8 ar  
    13     7    17 1   
    14     8     9 ar  
    15     8    10 1   
    16     9    18 1   
    17    11    12 1   
    18    12    19 1   
    19    12    20 1   
    20    12    21 1   
    21    13    14 1   
    22    13    15 1   
@<TRIPOS>SUBSTRUCTURE
     1 UNE         1 TEMP              0 ****  ****    0 ROOT
