@<TRIPOS>MOLECULE
UNE
   21    22     1     0     0
SMALL
No Charge or Current Charge


@<TRIPOS>ATOM
      1 O01         -2.2950     0.8330    -0.0020 os         1 UNE      -0.117200
      2 C02         -2.9110    -0.4240    -0.0020 cc         1 UNE       0.009900
      3 C03         -1.9470    -1.4220     0.0080 cd         1 UNE      -0.284200
      4 C04         -0.6700    -0.7890     0.0130 ca         1 UNE      -0.079800
      5 C05         -0.9390     0.5560     0.0070 ca         1 UNE       0.012100
      6 C06          0.1010     1.5030     0.0100 ca         1 UNE       0.155100
      7 C07          1.4360     1.0190     0.0200 ca         1 UNE      -0.210000
      8 C08          1.6910    -0.3740     0.0260 ca         1 UNE      -0.004900
      9 C09          0.6300    -1.3020     0.0230 ca         1 UNE      -0.080000
     10 Br10         3.4960    -1.0010     0.0390 br         1 UNE      -0.155100
     11 O11         -0.2100     2.8490     0.0040 os         1 UNE      -0.315100
     12 C12          0.8060     3.8660     0.0070 c3         1 UNE       0.150900
     13 C13         -4.3980    -0.6050    -0.0100 c          1 UNE       0.735200
     14 O14         -4.8540    -1.7430    -0.0090 o          1 UNE      -0.686500
     15 O15         -5.1130     0.3900    -0.0180 o          1 UNE      -0.686500
     16 H03         -2.1450    -2.4910     0.0100 ha         1 UNE       0.217000
     17 H07          2.2790     1.7020     0.0230 ha         1 UNE       0.115000
     18 H09          0.8140    -2.3740     0.0280 ha         1 UNE       0.124000
     19 H12          1.4340     3.7860     0.9030 h1         1 UNE       0.033367
     20 H12A         1.4460     3.7800    -0.8810 h1         1 UNE       0.033367
     21 H12B         0.3460     4.8620     0.0010 h1         1 UNE       0.033367
@<TRIPOS>BOND
     1     1     2 1   
     2     1     5 1   
     3     2     3 2   
     4     2    13 1   
     5     3     4 1   
     6     3    16 1   
     7     4     5 ar  
     8     4     9 ar  
     9     5     6 ar  
    10     6     7 ar  
    11     6    11 1   
    12     7     8 ar  
    13     7    17 1   
    14     8     9 ar  
    15     8    10 1   
    16     9    18 1   
    17    11    12 1   
    18    12    19 1   
    19    12    20 1   
    20    12    21 1   
    21    13    14 1   
    22    13    15 1   
@<TRIPOS>SUBSTRUCTURE
     1 UNE         1 TEMP              0 ****  ****    0 ROOT
