@<TRIPOS>MOLECULE
UNF
   38    39     1     0     0
SMALL
bcc


@<TRIPOS>ATOM
      1 C1          -0.9030     0.2550     0.3110 c6         1 UNF       0.341900
      2 C2          -1.3240     1.1340     1.4740 c6         1 UNF       0.078100
      3 C3          -2.7880     1.5380     1.2490 c6         1 UNF       0.175300
      4 C4          -3.5690     0.3600     0.7650 c2         1 UNF      -0.406200
      5 C5          -2.9950    -0.7800     0.3640 ce         1 UNF       0.070900
      6 C6          -3.7910    -2.0220    -0.0350 c          1 UNF       0.933800
      7 O1           0.4240    -0.0820     0.4130 os         1 UNF      -0.368600
      8 O2          -1.1620     0.3960     2.6570 oh         1 UNF      -0.564800
      9 O3          -2.9010     2.6640     0.3940 oh         1 UNF      -0.620800
     10 O5          -1.6570    -0.9430     0.2880 os         1 UNF      -0.301900
     11 O6          -5.0290    -1.8960    -0.0460 o          1 UNF      -0.818300
     12 C7           3.8660     0.0380     0.0610 c6         1 UNF       0.313900
     13 C8           3.1190    -1.2650     0.3380 c6         1 UNF       0.075100
     14 C9           2.0320    -1.4550    -0.7140 c6         1 UNF       0.152100
     15 C10          1.1490    -0.2200    -0.7980 c6         1 UNF       0.144100
     16 C11          2.0270     1.0140    -1.0090 c6         1 UNF      -0.016900
     17 C12          1.1860     2.3060    -1.1110 c          1 UNF       0.945600
     18 O7           3.9800    -2.3770     0.2580 oh         1 UNF      -0.626800
     19 O8           1.2370    -2.5820    -0.4640 oh         1 UNF      -0.542800
     20 O9           2.9720     1.1190     0.0320 os         1 UNF      -0.382600
     21 O10          0.3350     2.2900    -2.0240 o          1 UNF      -0.818300
     22 OAC          1.4300     3.2230    -0.3160 o          1 UNF      -0.818300
     23 OAN         -3.1260    -3.0340    -0.3030 o          1 UNF      -0.818300
     24 H1          -1.1050     0.8050    -0.6210 h2         1 UNF       0.064700
     25 H2          -0.6970     2.0360     1.4580 h1         1 UNF       0.073700
     26 H3          -3.1950     1.8750     2.2090 h1         1 UNF       0.035700
     27 HA          -1.3810     0.9680     3.3990 ho         1 UNF       0.371000
     28 H41C        -4.6490     0.4130     0.7720 ha         1 UNF       0.143000
     29 HB          -2.7640     2.3740    -0.5130 ho         1 UNF       0.416000
     30 H4           0.4710    -0.3260    -1.6520 h1         1 UNF       0.083700
     31 H7           2.6510    -1.1960     1.3310 h1         1 UNF       0.089700
     32 H8           2.5330    -1.5370    -1.6930 h1         1 UNF       0.011700
     33 HD           4.5560    -2.3740     1.0280 ho         1 UNF       0.400000
     34 HE           1.8150    -3.3520    -0.4430 ho         1 UNF       0.387000
     35 H5           2.5450     0.8880    -1.9750 h1         1 UNF       0.010700
     36 O4           4.7750     0.2440     1.0830 oh         1 UNF      -0.602800
     37 HC           5.4730     0.8330     0.7790 ho         1 UNF       0.399000
     38 H6           4.3760    -0.0450    -0.9160 h2         1 UNF      -0.005300
@<TRIPOS>BOND
     1     1     2 1   
     2     1     7 1   
     3     1    10 1   
     4     1    24 1   
     5     2     3 1   
     6     2     8 1   
     7     2    25 1   
     8     3     4 1   
     9     3     9 1   
    10     3    26 1   
    11     4     5 2   
    12     4    28 1   
    13     5     6 1   
    14     5    10 1   
    15     6    11 1   
    16     6    23 1   
    17     7    15 1   
    18     8    27 1   
    19     9    29 1   
    20    12    13 1   
    21    12    20 1   
    22    12    36 1   
    23    12    38 1   
    24    13    14 1   
    25    13    18 1   
    26    13    31 1   
    27    14    15 1   
    28    14    19 1   
    29    14    32 1   
    30    15    16 1   
    31    15    30 1   
    32    16    17 1   
    33    16    20 1   
    34    16    35 1   
    35    17    21 1   
    36    17    22 1   
    37    18    33 1   
    38    19    34 1   
    39    36    37 1   
@<TRIPOS>SUBSTRUCTURE
     1 UNF         1 TEMP              0 ****  ****    0 ROOT
