@<TRIPOS>MOLECULE
UNF
   38    39     1     0     0
SMALL
No Charge or Current Charge


@<TRIPOS>ATOM
      1 C1          -0.8600     0.3630     0.4340 c6         1 UNF       0.388300
      2 C2          -1.3630     0.9010     1.8160 c6         1 UNF       0.101300
      3 C3          -2.7860     1.4900     1.5760 c6         1 UNF       0.198500
      4 C4          -3.6400     0.5200     0.7990 c2         1 UNF      -0.456200
      5 C5          -3.1230    -0.4940     0.0480 ce         1 UNF       0.070900
      6 C6          -3.9960    -1.5040    -0.7200 c          1 UNF       0.723200
      7 O1           0.4730    -0.1910     0.5520 os         1 UNF      -0.415000
      8 O2          -1.3870    -0.1290     2.8480 oh         1 UNF      -0.687000
      9 O3          -2.7280     2.6710     0.7880 oh         1 UNF      -0.683000
     10 O5          -1.7440    -0.6700    -0.0680 os         1 UNF      -0.325100
     11 O6          -5.2170    -1.4040    -0.6560 o          1 UNF      -0.713000
     12 C7           4.0280     0.0480    -0.2000 c6         1 UNF       0.360300
     13 C8           3.3540    -1.2060     0.4460 c6         1 UNF       0.098300
     14 C9           2.1870    -1.6680    -0.4720 c6         1 UNF       0.175300
     15 C10          1.1730    -0.4950    -0.6880 c6         1 UNF       0.167300
     16 C11          1.9620     0.7270    -1.2660 c6         1 UNF       0.006300
     17 C12          1.0290     1.9210    -1.6580 c          1 UNF       0.735000
     18 O7           4.2990    -2.2880     0.6630 oh         1 UNF      -0.749000
     19 O8           1.5810    -2.8400     0.0980 oh         1 UNF      -0.665000
     20 O9           3.0660     1.0900    -0.3740 os         1 UNF      -0.429000
     21 O10          0.8000     2.0260    -2.8560 o          1 UNF      -0.713000
     22 OAC          1.0910     2.9290    -0.9650 o          1 UNF      -0.713000
     23 OAN         -3.4520    -2.3820    -1.3830 o          1 UNF      -0.713000
     24 H1          -0.8640     1.2030    -0.2730 h2         1 UNF       0.064700
     25 H2          -0.6980     1.7220     2.1240 h1         1 UNF       0.073700
     26 H3          -3.2610     1.7100     2.5440 h1         1 UNF       0.035700
     27 HA          -1.8530     0.2530     3.6250 ho         1 UNF       0.470000
     28 H41C        -4.7200     0.6430     0.8950 ha         1 UNF       0.193000
     29 HB          -3.6400     2.8070     0.4500 ho         1 UNF       0.455000
     30 H4           0.4410    -0.8280    -1.4390 h1         1 UNF       0.083700
     31 H7           2.9250    -0.8850     1.4080 h1         1 UNF       0.089700
     32 H8           2.6120    -1.9290    -1.4530 h1         1 UNF       0.011700
     33 HD           5.1240    -1.8520     0.9870 ho         1 UNF       0.499000
     34 HE           2.3370    -3.3000     0.5320 ho         1 UNF       0.486000
     35 H5           2.4190     0.3940    -2.2100 h1         1 UNF       0.010700
     36 O4           5.0200     0.5870     0.6510 oh         1 UNF      -0.725000
     37 HC           4.8540     1.5540     0.5990 ho         1 UNF       0.498000
     38 H6           4.4720    -0.2100    -1.1730 h2         1 UNF      -0.005300
@<TRIPOS>BOND
     1     1     2 1   
     2     1     7 1   
     3     1    10 1   
     4     1    24 1   
     5     2     3 1   
     6     2     8 1   
     7     2    25 1   
     8     3     4 1   
     9     3     9 1   
    10     3    26 1   
    11     4     5 2   
    12     4    28 1   
    13     5     6 1   
    14     5    10 1   
    15     6    11 1   
    16     6    23 1   
    17     7    15 1   
    18     8    27 1   
    19     9    29 1   
    20    12    13 1   
    21    12    20 1   
    22    12    36 1   
    23    12    38 1   
    24    13    14 1   
    25    13    18 1   
    26    13    31 1   
    27    14    15 1   
    28    14    19 1   
    29    14    32 1   
    30    15    16 1   
    31    15    30 1   
    32    16    17 1   
    33    16    20 1   
    34    16    35 1   
    35    17    21 1   
    36    17    22 1   
    37    18    33 1   
    38    19    34 1   
    39    36    37 1   
@<TRIPOS>SUBSTRUCTURE
     1 UNF         1 TEMP              0 ****  ****    0 ROOT
