@<TRIPOS>MOLECULE
UNG
   38    39     1     0     0
SMALL
abcg2


@<TRIPOS>ATOM
      1 C1           2.4430    -3.0200    -0.8410 c6         1 UNG       0.399300
      2 C2           3.6460    -3.0140     0.0850 c6         1 UNG       0.112300
      3 C3           3.6760    -4.3550     0.8370 c6         1 UNG       0.189500
      4 C4           3.3860    -5.4830    -0.1020 c2         1 UNG      -0.451200
      5 C5           2.8830    -5.2850    -1.3240 ce         1 UNG       0.075900
      6 C6           2.5670    -6.3950    -2.3210 c          1 UNG       0.722200
      7 O1           2.3380    -1.8420    -1.5270 os         1 UNG      -0.407000
      8 O2           4.7910    -2.8400    -0.7060 oh         1 UNG      -0.677000
      9 O3           2.8000    -4.3470     1.9520 oh         1 UNG      -0.686000
     10 O5           2.5830    -4.0570    -1.7960 os         1 UNG      -0.361100
     11 O6           2.9380    -7.5380    -2.0080 o          1 UNG      -0.706500
     12 C7           1.6070    -0.0940    -4.3880 c6         1 UNG       0.338300
     13 C8           1.4480    -1.6230    -4.3370 c6         1 UNG       0.118300
     14 C9           0.5110    -2.0020    -3.1950 c6         1 UNG       0.165300
     15 C10          1.0390    -1.3900    -1.8910 c6         1 UNG       0.127300
     16 C11          1.1600     0.1170    -2.0650 c6         1 UNG       0.027300
     17 C12          1.6810     0.7940    -0.7790 c          1 UNG       0.742000
     18 O7           0.9350    -2.1370    -5.5380 oh         1 UNG      -0.697000
     19 O8           0.2230    -3.3730    -3.1360 oh         1 UNG      -0.735000
     20 O9           2.0150     0.4160    -3.1520 os         1 UNG      -0.430000
     21 O10          2.6490     1.5630    -0.8770 o          1 UNG      -0.724500
     22 OAC          1.0300     0.5160     0.2470 o          1 UNG      -0.724500
     23 OAN          1.9560    -6.0410    -3.3450 o          1 UNG      -0.706500
     24 H1           1.5400    -3.2190    -0.2380 h2         1 UNG       0.028700
     25 H2           3.5150    -2.2020     0.8130 h1         1 UNG       0.062700
     26 H3           4.6800    -4.4780     1.2600 h1         1 UNG       0.041700
     27 HA           5.5560    -2.7950    -0.1250 ho         1 UNG       0.476000
     28 H4C1         3.5890    -6.4960     0.2170 ha         1 UNG       0.196000
     29 HB           1.9190    -4.5880     1.6500 ho         1 UNG       0.443000
     30 H4           0.3280    -1.5980    -1.0830 h1         1 UNG       0.065700
     31 H7           2.4440    -2.0390    -4.1290 h1         1 UNG       0.073700
     32 H8          -0.4580    -1.5190    -3.3700 h1         1 UNG       0.065700
     33 HD           1.5900    -2.0020    -6.2310 ho         1 UNG       0.476000
     34 HE           1.0350    -3.8970    -3.0690 ho         1 UNG       0.559000
     35 H5           0.1500     0.5100    -2.2510 h1         1 UNG       0.029700
     36 O4           0.4030     0.4550    -4.8270 oh         1 UNG      -0.742000
     37 HC           0.5460     1.3860    -5.0290 ho         1 UNG       0.487000
     38 H6           2.4230     0.1620    -5.0780 h2         1 UNG       0.025700
@<TRIPOS>BOND
     1     1     2 1   
     2     1     7 1   
     3     1    10 1   
     4     1    24 1   
     5     2     3 1   
     6     2     8 1   
     7     2    25 1   
     8     3     4 1   
     9     3     9 1   
    10     3    26 1   
    11     4     5 2   
    12     4    28 1   
    13     5     6 1   
    14     5    10 1   
    15     6    11 1   
    16     6    23 1   
    17     7    15 1   
    18     8    27 1   
    19     9    29 1   
    20    12    13 1   
    21    12    20 1   
    22    12    36 1   
    23    12    38 1   
    24    13    14 1   
    25    13    18 1   
    26    13    31 1   
    27    14    15 1   
    28    14    19 1   
    29    14    32 1   
    30    15    16 1   
    31    15    30 1   
    32    16    17 1   
    33    16    20 1   
    34    16    35 1   
    35    17    21 1   
    36    17    22 1   
    37    18    33 1   
    38    19    34 1   
    39    36    37 1   
@<TRIPOS>SUBSTRUCTURE
     1 UNG         1 TEMP              0 ****  ****    0 ROOT
