@<TRIPOS>MOLECULE
UNG
   38    39     1     0     0
SMALL
No Charge or Current Charge


@<TRIPOS>ATOM
      1 C1           2.4490    -3.0550    -0.8130 c6         1 UNG       0.399300
      2 C2           3.6290    -3.0920     0.2160 c6         1 UNG       0.112300
      3 C3           3.5430    -4.4710     0.9390 c6         1 UNG       0.189500
      4 C4           3.3940    -5.5880    -0.0650 c2         1 UNG      -0.451200
      5 C5           2.9540    -5.3920    -1.3410 ce         1 UNG       0.075900
      6 C6           2.8350    -6.5260    -2.3750 c          1 UNG       0.722200
      7 O1           2.4250    -1.7960    -1.5230 os         1 UNG      -0.407000
      8 O2           4.9300    -2.9080    -0.4120 oh         1 UNG      -0.677000
      9 O3           2.3980    -4.5450     1.7780 oh         1 UNG      -0.686000
     10 O5           2.5770    -4.1230    -1.7830 os         1 UNG      -0.361100
     11 O6           3.1540    -7.6650    -2.0520 o          1 UNG      -0.706500
     12 C7           1.6060    -0.0820    -4.5930 c6         1 UNG       0.338300
     13 C8           1.4220    -1.6340    -4.4480 c6         1 UNG       0.118300
     14 C9           0.5270    -1.9560    -3.2010 c6         1 UNG       0.165300
     15 C10          1.1270    -1.2740    -1.9210 c6         1 UNG       0.127300
     16 C11          1.2350     0.2530    -2.1820 c6         1 UNG       0.027300
     17 C12          1.7060     1.0000    -0.8860 c          1 UNG       0.742000
     18 O7           0.8590    -2.1750    -5.6680 oh         1 UNG      -0.697000
     19 O8           0.3390    -3.3770    -3.0280 oh         1 UNG      -0.735000
     20 O9           2.0650     0.5090    -3.3650 os         1 UNG      -0.430000
     21 O10          2.8370     1.4740    -0.8880 o          1 UNG      -0.724500
     22 OAC          0.8200     1.5800    -0.2690 o          1 UNG      -0.724500
     23 OAN          2.4180    -6.2590    -3.4970 o          1 UNG      -0.706500
     24 H1           1.5060    -3.1790    -0.2600 h2         1 UNG       0.028700
     25 H2           3.4600    -2.3010     0.9610 h1         1 UNG       0.062700
     26 H3           4.4550    -4.6290     1.5360 h1         1 UNG       0.041700
     27 HA           5.6080    -3.0500     0.2850 ho         1 UNG       0.476000
     28 H4C1         3.6980    -6.5810     0.2690 ha         1 UNG       0.196000
     29 HB           2.2530    -5.5010     1.9440 ho         1 UNG       0.443000
     30 H4           0.4240    -1.4160    -1.0860 h1         1 UNG       0.065700
     31 H7           2.4180    -2.0680    -4.2750 h1         1 UNG       0.073700
     32 H8          -0.4560    -1.4930    -3.3760 h1         1 UNG       0.065700
     33 HD           0.1980    -1.5010    -5.9560 ho         1 UNG       0.476000
     34 HE           1.2300    -3.7460    -2.7850 ho         1 UNG       0.559000
     35 H5           0.2220     0.6300    -2.3900 h1         1 UNG       0.029700
     36 O4           0.3810     0.5570    -4.9500 oh         1 UNG      -0.742000
     37 HC           0.5670     1.5180    -4.8590 ho         1 UNG       0.487000
     38 H6           2.3530     0.1150    -5.3770 h2         1 UNG       0.025700
@<TRIPOS>BOND
     1     1     2 1   
     2     1     7 1   
     3     1    10 1   
     4     1    24 1   
     5     2     3 1   
     6     2     8 1   
     7     2    25 1   
     8     3     4 1   
     9     3     9 1   
    10     3    26 1   
    11     4     5 2   
    12     4    28 1   
    13     5     6 1   
    14     5    10 1   
    15     6    11 1   
    16     6    23 1   
    17     7    15 1   
    18     8    27 1   
    19     9    29 1   
    20    12    13 1   
    21    12    20 1   
    22    12    36 1   
    23    12    38 1   
    24    13    14 1   
    25    13    18 1   
    26    13    31 1   
    27    14    15 1   
    28    14    19 1   
    29    14    32 1   
    30    15    16 1   
    31    15    30 1   
    32    16    17 1   
    33    16    20 1   
    34    16    35 1   
    35    17    21 1   
    36    17    22 1   
    37    18    33 1   
    38    19    34 1   
    39    36    37 1   
@<TRIPOS>SUBSTRUCTURE
     1 UNG         1 TEMP              0 ****  ****    0 ROOT
