@<TRIPOS>MOLECULE
UNH
  103   104     1     0     0
SMALL
bcc


@<TRIPOS>ATOM
      1 C1           8.2450    -0.3880     0.1210 c          1 UNH       0.759100
      2 O2           8.6540    -0.5510     1.2530 o          1 UNH      -0.600000
      3 O3           8.9800    -0.5850    -0.9750 os         1 UNH      -0.435900
      4 C4          10.3270    -1.0280    -0.7980 c3         1 UNH       0.162400
      5 C5          10.8890    -1.4310    -2.1510 c3         1 UNH      -0.068700
      6 C6          12.3560    -1.8120    -1.9700 c3         1 UNH      -0.088100
      7 C7          10.1000    -2.5740    -2.7800 c3         1 UNH      -0.088100
      8 N8           7.0040     0.0230    -0.2080 ns         1 UNH      -0.553900
      9 C9           5.9490     0.1680     0.7590 c3         1 UNH       0.048700
     10 C10          5.5840     1.6400     1.0510 c6         1 UNH      -0.066700
     11 C11          6.7750     2.3900     1.6460 c6         1 UNH      -0.072400
     12 C12          6.4110     3.8310     1.9900 c6         1 UNH      -0.073900
     13 C13          5.8620     4.5680     0.7740 c6         1 UNH      -0.075400
     14 C14          4.6790     3.8220     0.1690 c6         1 UNH      -0.073900
     15 C15          5.0400     2.3790    -0.1710 c6         1 UNH      -0.072400
     16 C16          4.7190    -0.5910     0.2660 c          1 UNH       0.657100
     17 O17          4.5520    -0.8580    -0.9130 o          1 UNH      -0.608100
     18 N18          3.8400    -0.8990     1.2330 ns         1 UNH      -0.561900
     19 C19          2.5360    -1.4720     0.9880 c3         1 UNH       0.035700
     20 C20          2.2590    -2.6060     1.9750 c3         1 UNH      -0.081400
     21 C21          0.8850    -3.2650     1.8370 c3         1 UNH      -0.060700
     22 C22          0.6600    -3.8630     0.4520 c3         1 UNH      -0.088600
     23 C23          0.7300    -4.3350     2.9130 c3         1 UNH      -0.088600
     24 C24          1.4850    -0.3730     1.1400 c          1 UNH       0.654100
     25 O25          1.3900     0.2550     2.1820 o          1 UNH      -0.603100
     26 N26          0.7030    -0.1750     0.0660 ns         1 UNH      -0.557900
     27 C27         -0.3850     0.7640     0.0320 c3         1 UNH       0.019700
     28 C28         -0.2130     1.8030    -1.0890 c3         1 UNH      -0.083400
     29 C29          1.0640     2.6190    -0.9350 c3         1 UNH      -0.073400
     30 C30          1.1850     3.6910    -2.0080 c3         1 UNH      -0.090100
     31 C32         -1.6940     0.0300    -0.1620 c          1 UNH       0.485100
     32 O33         -2.9060     1.8600     0.8160 o          1 UNH      -0.587100
     33 N34         -4.0890     0.1770    -0.1330 ns         1 UNH      -0.540900
     34 C35         -5.3930     0.6990     0.1640 c3         1 UNH       0.020000
     35 C36         -6.4430    -0.2700    -0.3480 c          1 UNH       0.660100
     36 O37         -6.1470    -1.3030    -0.9290 o          1 UNH      -0.604100
     37 C38         -2.9690     0.7950     0.2250 c          1 UNH       0.569100
     38 N39         -7.7090     0.0870    -0.1070 ns         1 UNH      -0.551900
     39 C40         -8.8030    -0.7530    -0.5240 c3         1 UNH       0.084000
     40 C41        -10.1230    -0.1630    -0.0890 ca         1 UNH      -0.117300
     41 C42        -10.4840     1.1290    -0.4700 ca         1 UNH      -0.111000
     42 C43        -11.7030     1.6590    -0.0750 ca         1 UNH      -0.127500
     43 C44        -12.5770     0.9020     0.6960 ca         1 UNH      -0.114000
     44 C45        -12.2240    -0.3860     1.0730 ca         1 UNH      -0.127500
     45 C46        -11.0010    -0.9140     0.6830 ca         1 UNH      -0.111000
     46 C47         -8.8120    -0.9070    -2.0540 c          1 UNH       0.676100
     47 O48         -8.4450    -0.0090    -2.7890 o          1 UNH      -0.594100
     48 N49         -9.3150    -2.0710    -2.4760 nt         1 UNH      -0.665000
     49 H41         10.9250    -0.2230    -0.3610 h1         1 UNH       0.049200
     50 H42A        10.3610    -1.8820    -0.1160 h1         1 UNH       0.049200
     51 H5          10.8420    -0.5620    -2.8160 hc         1 UNH       0.058700
     52 H61         12.4610    -2.6670    -1.2980 hc         1 UNH       0.037200
     53 H62         12.8060    -2.0850    -2.9240 hc         1 UNH       0.037200
     54 H63         12.9390    -0.9880    -1.5540 hc         1 UNH       0.037200
     55 H71         10.5560    -2.8800    -3.7220 hc         1 UNH       0.037200
     56 H72         10.0850    -3.4470    -2.1210 hc         1 UNH       0.037200
     57 H73          9.0680    -2.2960    -2.9890 hc         1 UNH       0.037200
     58 HN8          6.7440     0.0270    -1.1820 hn         1 UNH       0.344500
     59 H9           6.2860    -0.2800     1.6970 h1         1 UNH       0.090700
     60 H10          4.7930     1.6200     1.8120 hc         1 UNH       0.055700
     61 H111         7.1350     1.8660     2.5350 hc         1 UNH       0.047700
     62 H112         7.6000     2.3930     0.9260 hc         1 UNH       0.047700
     63 H121         5.6610     3.8380     2.7890 hc         1 UNH       0.040200
     64 H122         7.2870     4.3510     2.3850 hc         1 UNH       0.040200
     65 H131         5.5710     5.5860     1.0450 hc         1 UNH       0.039200
     66 H132         6.6530     4.6590     0.0200 hc         1 UNH       0.039200
     67 H141         3.8430     3.8270     0.8770 hc         1 UNH       0.040200
     68 H142         4.3240     4.3350    -0.7290 hc         1 UNH       0.040200
     69 H151         5.7930     2.3730    -0.9690 hc         1 UNH       0.047700
     70 H152         4.1590     1.8730    -0.5710 hc         1 UNH       0.047700
     71 H18          4.0530    -0.6350     2.1830 hn         1 UNH       0.329500
     72 H19          2.5420    -1.8660    -0.0290 h1         1 UNH       0.090700
     73 H201         3.0380    -3.3620     1.8410 hc         1 UNH       0.055700
     74 H202         2.3700    -2.2190     2.9930 hc         1 UNH       0.055700
     75 H21          0.1120    -2.5070     2.0090 hc         1 UNH       0.053700
     76 H221        -0.3000    -4.3810     0.4100 hc         1 UNH       0.035367
     77 H222         0.6440    -3.1080    -0.3350 hc         1 UNH       0.035367
     78 H223         1.4390    -4.5890     0.2070 hc         1 UNH       0.035367
     79 H231         0.8500    -3.9160     3.9130 hc         1 UNH       0.035367
     80 H232        -0.2540    -4.8030     2.8650 hc         1 UNH       0.035367
     81 H233         1.4780    -5.1210     2.7890 hc         1 UNH       0.035367
     82 H26          0.8630    -0.7370    -0.7560 hn         1 UNH       0.329500
     83 H27         -0.4070     1.2890     0.9880 h1         1 UNH       0.123700
     84 H281        -1.0760     2.4730    -1.0800 hc         1 UNH       0.054200
     85 H282        -0.2180     1.2980    -2.0600 hc         1 UNH       0.054200
     86 H291         1.9300     1.9550    -0.9820 hc         1 UNH       0.047700
     87 H292         1.0840     3.0810     0.0560 hc         1 UNH       0.047700
     88 H301         2.1040     4.2660    -1.8900 hc         1 UNH       0.033700
     89 H302         1.1980     3.2510    -3.0060 hc         1 UNH       0.033700
     90 H303         0.3490     4.3900    -1.9640 hc         1 UNH       0.033700
     91 H34         -4.0400    -0.7130    -0.6110 hn         1 UNH       0.365500
     92 H351        -5.5240     0.8390     1.2410 h1         1 UNH       0.071700
     93 H352        -5.5450     1.6760    -0.3040 h1         1 UNH       0.071700
     94 H39         -7.9100     0.9390     0.3940 hn         1 UNH       0.332500
     95 H40         -8.6940    -1.7430    -0.0700 h1         1 UNH       0.068700
     96 H42         -9.8160     1.7230    -1.0810 ha         1 UNH       0.140000
     97 H43        -11.9720     2.6630    -0.3740 ha         1 UNH       0.136000
     98 H44        -13.5280     1.3170     1.0040 ha         1 UNH       0.135000
     99 H45        -12.8980    -0.9800     1.6770 ha         1 UNH       0.136000
    100 H46        -10.7270    -1.9170     0.9870 ha         1 UNH       0.140000
    101 H491        -9.5600    -2.8100    -1.8390 hn         1 UNH       0.316000
    102 H492        -9.4100    -2.2610    -3.4610 hn         1 UNH       0.316000
    103 O31         -1.7620    -1.0860    -0.6080 o          1 UNH      -0.495100
@<TRIPOS>BOND
     1     1     2 2   
     2     1     3 1   
     3     1     8 1   
     4     3     4 1   
     5     4     5 1   
     6     4    49 1   
     7     4    50 1   
     8     5     6 1   
     9     5     7 1   
    10     5    51 1   
    11     6    52 1   
    12     6    53 1   
    13     6    54 1   
    14     7    55 1   
    15     7    56 1   
    16     7    57 1   
    17     8     9 1   
    18     8    58 1   
    19     9    10 1   
    20     9    16 1   
    21     9    59 1   
    22    10    11 1   
    23    10    15 1   
    24    10    60 1   
    25    11    12 1   
    26    11    61 1   
    27    11    62 1   
    28    12    13 1   
    29    12    63 1   
    30    12    64 1   
    31    13    14 1   
    32    13    65 1   
    33    13    66 1   
    34    14    15 1   
    35    14    67 1   
    36    14    68 1   
    37    15    69 1   
    38    15    70 1   
    39    16    17 2   
    40    16    18 1   
    41    18    19 1   
    42    18    71 1   
    43    19    20 1   
    44    19    24 1   
    45    19    72 1   
    46    20    21 1   
    47    20    73 1   
    48    20    74 1   
    49    21    22 1   
    50    21    23 1   
    51    21    75 1   
    52    22    76 1   
    53    22    77 1   
    54    22    78 1   
    55    23    79 1   
    56    23    80 1   
    57    23    81 1   
    58    24    25 2   
    59    24    26 1   
    60    26    27 1   
    61    26    82 1   
    62    27    28 1   
    63    27    31 1   
    64    27    83 1   
    65    28    29 1   
    66    28    84 1   
    67    28    85 1   
    68    29    30 1   
    69    29    86 1   
    70    29    87 1   
    71    30    88 1   
    72    30    89 1   
    73    30    90 1   
    74    31    37 1   
    75    31   103 2   
    76    32    37 2   
    77    33    34 1   
    78    33    37 1   
    79    33    91 1   
    80    34    35 1   
    81    34    92 1   
    82    34    93 1   
    83    35    36 2   
    84    35    38 1   
    85    38    39 1   
    86    38    94 1   
    87    39    40 1   
    88    39    46 1   
    89    39    95 1   
    90    40    41 ar  
    91    40    45 ar  
    92    41    42 ar  
    93    41    96 1   
    94    42    43 ar  
    95    42    97 1   
    96    43    44 ar  
    97    43    98 1   
    98    44    45 ar  
    99    44    99 1   
   100    45   100 1   
   101    46    47 2   
   102    46    48 1   
   103    48   101 1   
   104    48   102 1   
@<TRIPOS>SUBSTRUCTURE
     1 UNH         1 TEMP              0 ****  ****    0 ROOT
