@<TRIPOS>MOLECULE
UNH
  103   104     1     0     0
SMALL
No Charge or Current Charge


@<TRIPOS>ATOM
      1 C1           8.7000    -0.4450     0.6400 c          1 UNH       0.643100
      2 O2           8.9870    -0.2150     1.8040 o          1 UNH      -0.551000
      3 O3           9.5660    -0.8370    -0.3330 os         1 UNH      -0.459100
      4 C4          10.9510    -0.9820     0.0260 c3         1 UNH       0.185600
      5 C5          11.7370    -1.4360    -1.2300 c3         1 UNH      -0.068700
      6 C6          13.2590    -1.4330    -0.9650 c3         1 UNH      -0.088100
      7 C7          11.2670    -2.8150    -1.7540 c3         1 UNH      -0.088100
      8 N8           7.4470    -0.3730     0.1070 ns         1 UNH      -0.486900
      9 C9           6.2190     0.0080     0.8440 c3         1 UNH       0.048700
     10 C10          5.8940     1.5430     0.7310 c6         1 UNH      -0.066700
     11 C11          7.0470     2.4530     1.2440 c6         1 UNH      -0.072400
     12 C12          6.6510     3.9500     1.1890 c6         1 UNH      -0.073900
     13 C13          6.2280     4.3640    -0.2420 c6         1 UNH      -0.075400
     14 C14          5.0860     3.4620    -0.7700 c6         1 UNH      -0.073900
     15 C15          5.4790     1.9650    -0.7110 c6         1 UNH      -0.072400
     16 C16          5.0320    -0.9090     0.4150 c          1 UNH       0.590100
     17 O17          5.1260    -1.7740    -0.4480 o          1 UNH      -0.608100
     18 N18          3.8350    -0.6490     1.0470 ns         1 UNH      -0.494900
     19 C19          2.5360    -1.2530     0.6890 c3         1 UNH       0.035700
     20 C20          2.3120    -2.5530     1.5090 c3         1 UNH      -0.081400
     21 C21          1.0110    -3.3450     1.1940 c3         1 UNH      -0.060700
     22 C22          0.9510    -3.8430    -0.2710 c3         1 UNH      -0.088600
     23 C23          0.8370    -4.5260     2.1760 c3         1 UNH      -0.088600
     24 C24          1.4230    -0.1930     0.9200 c          1 UNH       0.587100
     25 O25          1.4880     0.6540     1.8020 o          1 UNH      -0.603100
     26 N26          0.3670    -0.2370     0.0320 ns         1 UNH      -0.490900
     27 C27         -0.7340     0.7530    -0.0280 c3         1 UNH       0.019700
     28 C28         -0.4380     1.8780    -1.0580 c3         1 UNH      -0.083400
     29 C29          0.8510     2.6910    -0.7780 c3         1 UNH      -0.073400
     30 C30          1.0670     3.8430    -1.7780 c3         1 UNH      -0.090100
     31 C32         -2.0790     0.0380    -0.3320 c          1 UNH       0.485100
     32 O33         -3.4140     1.8650     0.7140 o          1 UNH      -0.587100
     33 N34         -4.5910     0.1760    -0.2750 ns         1 UNH      -0.473900
     34 C35         -5.9470     0.6950     0.0140 c3         1 UNH       0.020000
     35 C36         -7.0520    -0.2390    -0.5310 c          1 UNH       0.593100
     36 O37         -6.8110    -1.2800    -1.1310 o          1 UNH      -0.604100
     37 C38         -3.4130     0.8030     0.0980 c          1 UNH       0.502100
     38 N39         -8.3400     0.1840    -0.2930 ns         1 UNH      -0.484900
     39 C40         -9.5500    -0.5420    -0.7290 c3         1 UNH       0.084000
     40 C41        -10.7150    -0.2260     0.2080 ca         1 UNH      -0.117300
     41 C42        -11.2960     1.0600     0.2230 ca         1 UNH      -0.093000
     42 C43        -12.3660     1.3450     1.0880 ca         1 UNH      -0.109500
     43 C44        -12.8630     0.3500     1.9460 ca         1 UNH      -0.096000
     44 C45        -12.2870    -0.9310     1.9400 ca         1 UNH      -0.109500
     45 C46        -11.2160    -1.2190     1.0750 ca         1 UNH      -0.093000
     46 C47         -9.9040    -0.2340    -2.2180 c          1 UNH       0.609100
     47 O48         -9.3640     0.6330    -2.8920 o          1 UNH      -0.594100
     48 N49        -10.8950    -0.9810    -2.7590 nt         1 UNH      -0.598000
     49 H41         11.3550    -0.0250     0.3830 h1         1 UNH       0.049200
     50 H42A        11.0730    -1.7260     0.8250 h1         1 UNH       0.049200
     51 H5          11.5450    -0.6980    -2.0190 hc         1 UNH       0.058700
     52 H61         13.5210    -2.1520    -0.1790 hc         1 UNH       0.037200
     53 H62         13.8120    -1.7020    -1.8740 hc         1 UNH       0.037200
     54 H63         13.5960    -0.4390    -0.6470 hc         1 UNH       0.037200
     55 H71         11.8310    -3.1010    -2.6510 hc         1 UNH       0.037200
     56 H72         11.4150    -3.5930    -0.9950 hc         1 UNH       0.037200
     57 H73         10.2040    -2.7940    -2.0210 hc         1 UNH       0.037200
     58 HN8          7.3670    -0.6470    -0.8640 hn         1 UNH       0.344500
     59 H9           6.3820    -0.2100     1.9080 h1         1 UNH       0.090700
     60 H10          5.0330     1.7200     1.3900 hc         1 UNH       0.055700
     61 H111         7.3110     2.1810     2.2760 hc         1 UNH       0.047700
     62 H112         7.9510     2.3010     0.6390 hc         1 UNH       0.047700
     63 H121         5.8270     4.1420     1.8900 hc         1 UNH       0.040200
     64 H122         7.4940     4.5700     1.5220 hc         1 UNH       0.040200
     65 H131         5.9060     5.4140    -0.2460 hc         1 UNH       0.039200
     66 H132         7.0930     4.2990    -0.9170 hc         1 UNH       0.039200
     67 H141         4.1780     3.6290    -0.1740 hc         1 UNH       0.040200
     68 H142         4.8370     3.7420    -1.8020 hc         1 UNH       0.040200
     69 H151         6.3050     1.7750    -1.4110 hc         1 UNH       0.047700
     70 H152         4.6310     1.3620    -1.0620 hc         1 UNH       0.047700
     71 H18          3.8340     0.0870     1.7460 hn         1 UNH       0.329500
     72 H19          2.5490    -1.4890    -0.3830 h1         1 UNH       0.090700
     73 H201         3.1710    -3.2180     1.3530 hc         1 UNH       0.055700
     74 H202         2.3170    -2.2910     2.5740 hc         1 UNH       0.055700
     75 H21          0.1540    -2.6780     1.3540 hc         1 UNH       0.053700
     76 H221         0.0330    -4.4170    -0.4460 hc         1 UNH       0.035367
     77 H222         0.9570    -3.0090    -0.9810 hc         1 UNH       0.035367
     78 H223         1.8070    -4.4920    -0.4960 hc         1 UNH       0.035367
     79 H231         0.8200    -4.1700     3.2130 hc         1 UNH       0.035367
     80 H232        -0.1050    -5.0540     1.9860 hc         1 UNH       0.035367
     81 H233         1.6590    -5.2450     2.0720 hc         1 UNH       0.035367
     82 H26          0.3760    -0.9820    -0.6560 hn         1 UNH       0.329500
     83 H27         -0.8520     1.2130     0.9630 h1         1 UNH       0.123700
     84 H281        -1.2880     2.5720    -1.0800 hc         1 UNH       0.054200
     85 H282        -0.3700     1.4370    -2.0610 hc         1 UNH       0.054200
     86 H291         1.7250     2.0290    -0.8200 hc         1 UNH       0.047700
     87 H292         0.8080     3.1030     0.2380 hc         1 UNH       0.047700
     88 H301         1.9880     4.3880    -1.5390 hc         1 UNH       0.033700
     89 H302         1.1520     3.4580    -2.8010 hc         1 UNH       0.033700
     90 H303         0.2310     4.5510    -1.7410 hc         1 UNH       0.033700
     91 H34         -4.5050    -0.7040    -0.7790 hn         1 UNH       0.365500
     92 H351        -6.0820     0.7930     1.0980 h1         1 UNH       0.071700
     93 H352        -6.0710     1.6820    -0.4480 h1         1 UNH       0.071700
     94 H39         -8.4550     1.0570     0.2080 hn         1 UNH       0.332500
     95 H40         -9.3440    -1.6190    -0.6770 h1         1 UNH       0.068700
     96 H42        -10.9200     1.8400    -0.4360 ha         1 UNH       0.122000
     97 H43        -12.8100     2.3380     1.0940 ha         1 UNH       0.118000
     98 H44        -13.6910     0.5710     2.6160 ha         1 UNH       0.117000
     99 H45        -12.6690    -1.7020     2.6050 ha         1 UNH       0.118000
    100 H46        -10.7770    -2.2140     1.0810 ha         1 UNH       0.122000
    101 H491       -11.3630    -1.6810    -2.2020 hn         1 UNH       0.316000
    102 H492       -11.1720    -0.8160    -3.7160 hn         1 UNH       0.316000
    103 O31         -2.1240    -1.0730    -0.8660 o          1 UNH      -0.495100
@<TRIPOS>BOND
     1     1     2 2   
     2     1     3 1   
     3     1     8 1   
     4     3     4 1   
     5     4     5 1   
     6     4    49 1   
     7     4    50 1   
     8     5     6 1   
     9     5     7 1   
    10     5    51 1   
    11     6    52 1   
    12     6    53 1   
    13     6    54 1   
    14     7    55 1   
    15     7    56 1   
    16     7    57 1   
    17     8     9 1   
    18     8    58 1   
    19     9    10 1   
    20     9    16 1   
    21     9    59 1   
    22    10    11 1   
    23    10    15 1   
    24    10    60 1   
    25    11    12 1   
    26    11    61 1   
    27    11    62 1   
    28    12    13 1   
    29    12    63 1   
    30    12    64 1   
    31    13    14 1   
    32    13    65 1   
    33    13    66 1   
    34    14    15 1   
    35    14    67 1   
    36    14    68 1   
    37    15    69 1   
    38    15    70 1   
    39    16    17 2   
    40    16    18 1   
    41    18    19 1   
    42    18    71 1   
    43    19    20 1   
    44    19    24 1   
    45    19    72 1   
    46    20    21 1   
    47    20    73 1   
    48    20    74 1   
    49    21    22 1   
    50    21    23 1   
    51    21    75 1   
    52    22    76 1   
    53    22    77 1   
    54    22    78 1   
    55    23    79 1   
    56    23    80 1   
    57    23    81 1   
    58    24    25 2   
    59    24    26 1   
    60    26    27 1   
    61    26    82 1   
    62    27    28 1   
    63    27    31 1   
    64    27    83 1   
    65    28    29 1   
    66    28    84 1   
    67    28    85 1   
    68    29    30 1   
    69    29    86 1   
    70    29    87 1   
    71    30    88 1   
    72    30    89 1   
    73    30    90 1   
    74    31    37 1   
    75    31   103 2   
    76    32    37 2   
    77    33    34 1   
    78    33    37 1   
    79    33    91 1   
    80    34    35 1   
    81    34    92 1   
    82    34    93 1   
    83    35    36 2   
    84    35    38 1   
    85    38    39 1   
    86    38    94 1   
    87    39    40 1   
    88    39    46 1   
    89    39    95 1   
    90    40    41 ar  
    91    40    45 ar  
    92    41    42 ar  
    93    41    96 1   
    94    42    43 ar  
    95    42    97 1   
    96    43    44 ar  
    97    43    98 1   
    98    44    45 ar  
    99    44    99 1   
   100    45   100 1   
   101    46    47 2   
   102    46    48 1   
   103    48   101 1   
   104    48   102 1   
@<TRIPOS>SUBSTRUCTURE
     1 UNH         1 TEMP              0 ****  ****    0 ROOT
