@<TRIPOS>MOLECULE
UNI
   64    68     1     0     0
SMALL
abcg2


@<TRIPOS>ATOM
      1 CA          13.8200    22.9670     5.6750 cc         1 UNI      -0.289400
      2 CA2         12.6610    22.2270     6.0410 c          1 UNI       0.681300
      3 OA2         12.6140    21.1280     6.5740 o          1 UNI      -0.492000
      4 OA3         11.4400    22.8190     5.7660 os         1 UNI      -0.350200
      5 CA4         11.2830    24.0070     5.1260 cc         1 UNI       0.200900
      6 CA5         12.3590    24.7250     4.7200 cd         1 UNI      -0.265200
      7 CA6         13.6530    24.1690     5.0360 cd         1 UNI       0.223100
      8 OA6         14.7670    24.8390     4.6790 oh         1 UNI      -0.528100
      9 CB1         15.4350    21.1020     5.1880 ca         1 UNI      -0.046300
     10 CB2         14.9460    20.9590     3.8870 ca         1 UNI      -0.099000
     11 CB3         15.1870    19.8020     3.1540 ca         1 UNI      -0.094000
     12 CB4         15.9430    18.7700     3.6980 ca         1 UNI      -0.115000
     13 CB5         16.4380    18.9130     4.9890 ca         1 UNI       0.235000
     14 CB6         16.1810    20.0590     5.7310 ca         1 UNI      -0.086000
     15 CG1         15.1850    22.3850     5.9730 c3         1 UNI       0.091800
     16 CG2         15.4180    22.2410     7.4660 cx         1 UNI      -0.120700
     17 CG3         15.7000    23.4680     8.2830 cx         1 UNI      -0.131400
     18 CG4         16.7920    22.4580     8.0360 cx         1 UNI      -0.131400
     19 CD1          9.8290    24.2930     4.9210 c3         1 UNI      -0.042200
     20 CD2          9.3370    23.9280     3.5040 c3         1 UNI      -0.065400
     21 CD3         10.1980    24.4590     2.3590 c3         1 UNI      -0.076400
     22 CD4         10.3630    25.9800     2.2880 c3         1 UNI      -0.072400
     23 CD5         11.0510    26.6760     3.4730 c3         1 UNI      -0.065400
     24 CD6         12.3570    26.0360     3.9540 c3         1 UNI      -0.015200
     25 N           17.2340    17.8800     5.5900 nu         1 UNI      -0.903100
     26 S           18.8810    17.9970     5.4650 sy         1 UNI       1.163600
     27 O1          19.3920    16.6940     5.8190 o          1 UNI      -0.545000
     28 O2          19.2850    18.5930     4.2130 o          1 UNI      -0.545000
     29 CZ1         19.2760    19.1510     6.7580 ca         1 UNI      -0.250500
     30 CZ2         18.9640    18.8150     8.0720 ca         1 UNI      -0.012000
     31 CZ3         19.3010    19.6870     9.0910 ca         1 UNI      -0.097500
     32 CZ4         19.9470    20.8910     8.7800 ca         1 UNI       0.033000
     33 CZ5         20.2540    21.2200     7.4590 ca         1 UNI      -0.097500
     34 CZ6         19.9140    20.3430     6.4410 ca         1 UNI      -0.012000
     35 CZ7         20.2850    21.7950     9.8330 cg         1 UNI       0.313000
     36 NZ7         20.5460    22.5160    10.6940 n1         1 UNI      -0.435000
     37 HO6         14.5490    25.6700     4.2360 ho         1 UNI       0.478000
     38 HB2         14.3570    21.7530     3.4470 ha         1 UNI       0.114000
     39 HB3         14.7900    19.7070     2.1510 ha         1 UNI       0.117000
     40 HB4         16.1530    17.8720     3.1330 ha         1 UNI       0.118000
     41 HB6         16.5610    20.1270     6.7380 ha         1 UNI       0.131000
     42 HG1         15.9160    23.1110     5.6130 hc         1 UNI       0.072700
     43 HG2         14.8180    21.4790     7.9450 hc         1 UNI       0.097700
     44 HG31        15.7630    24.4140     7.7600 hc         1 UNI       0.070700
     45 HG32        15.2720    23.5320     9.2740 hc         1 UNI       0.070700
     46 HG41        17.1090    21.8290     8.8580 hc         1 UNI       0.070700
     47 HG42        17.5840    22.7290     7.3510 hc         1 UNI       0.070700
     48 HD11         9.2770    23.7010     5.6510 hc         1 UNI       0.072200
     49 HD12         9.6180    25.3340     5.1370 hc         1 UNI       0.072200
     50 HD21         9.2860    22.8380     3.4240 hc         1 UNI       0.051200
     51 HD22         8.3130    24.2990     3.4040 hc         1 UNI       0.051200
     52 HD31        11.1850    23.9880     2.4000 hc         1 UNI       0.044700
     53 HD32         9.7500    24.1250     1.4190 hc         1 UNI       0.044700
     54 HD41        10.9410    26.2040     1.3860 hc         1 UNI       0.040700
     55 HD42         9.3800    26.4420     2.1440 hc         1 UNI       0.040700
     56 HD51        11.3120    27.6870     3.1480 hc         1 UNI       0.044200
     57 HD52        10.3680    26.8130     4.3080 hc         1 UNI       0.044200
     58 HD61        12.8710    26.7780     4.5760 hc         1 UNI       0.040200
     59 HD62        12.9880    25.8950     3.0670 hc         1 UNI       0.040200
     60 HN          16.9450    16.9280     5.3860 hn         1 UNI       0.495000
     61 HZ2         18.4620    17.8840     8.2960 ha         1 UNI       0.143500
     62 HZ3         19.0640    19.4500    10.1180 ha         1 UNI       0.131500
     63 HZ5         20.7470    22.1560     7.2360 ha         1 UNI       0.131500
     64 HZ6         20.1410    20.5810     5.4130 ha         1 UNI       0.143500
@<TRIPOS>BOND
     1     1     2 1   
     2     1     7 2   
     3     1    15 1   
     4     2     3 2   
     5     2     4 1   
     6     4     5 1   
     7     5     6 2   
     8     5    19 1   
     9     6     7 1   
    10     6    24 1   
    11     7     8 1   
    12     8    37 1   
    13     9    10 ar  
    14     9    14 ar  
    15     9    15 1   
    16    10    11 ar  
    17    10    38 1   
    18    11    12 ar  
    19    11    39 1   
    20    12    13 ar  
    21    12    40 1   
    22    13    14 ar  
    23    13    25 1   
    24    14    41 1   
    25    15    16 1   
    26    15    42 1   
    27    16    17 1   
    28    16    18 1   
    29    16    43 1   
    30    17    18 1   
    31    17    44 1   
    32    17    45 1   
    33    18    46 1   
    34    18    47 1   
    35    19    20 1   
    36    19    48 1   
    37    19    49 1   
    38    20    21 1   
    39    20    50 1   
    40    20    51 1   
    41    21    22 1   
    42    21    52 1   
    43    21    53 1   
    44    22    23 1   
    45    22    54 1   
    46    22    55 1   
    47    23    24 1   
    48    23    56 1   
    49    23    57 1   
    50    24    58 1   
    51    24    59 1   
    52    25    26 1   
    53    25    60 1   
    54    26    27 2   
    55    26    28 2   
    56    26    29 1   
    57    29    30 ar  
    58    29    34 ar  
    59    30    31 ar  
    60    30    61 1   
    61    31    32 ar  
    62    31    62 1   
    63    32    33 ar  
    64    32    35 1   
    65    33    34 ar  
    66    33    63 1   
    67    34    64 1   
    68    35    36 3   
@<TRIPOS>SUBSTRUCTURE
     1 UNI         1 TEMP              0 ****  ****    0 ROOT
