@<TRIPOS>MOLECULE
UNI
   64    68     1     0     0
SMALL
No Charge or Current Charge


@<TRIPOS>ATOM
      1 CA          13.9210    22.9490     5.5850 cc         1 UNI      -0.289400
      2 CA2         12.7530    22.1000     5.8460 c          1 UNI       0.681300
      3 OA2         12.8140    20.9610     6.2880 o          1 UNI      -0.492000
      4 OA3         11.5480    22.6480     5.5670 os         1 UNI      -0.350200
      5 CA4         11.3080    23.8990     5.0750 cc         1 UNI       0.200900
      6 CA5         12.4080    24.7220     4.7890 cd         1 UNI      -0.265200
      7 CA6         13.7370    24.2110     5.0740 cd         1 UNI       0.223100
      8 OA6         14.8020    25.0010     4.8320 oh         1 UNI      -0.528100
      9 CB1         15.5640    21.0390     5.1150 ca         1 UNI      -0.046300
     10 CB2         15.1300    20.9380     3.7750 ca         1 UNI      -0.099000
     11 CB3         15.3470    19.7640     3.0360 ca         1 UNI      -0.094000
     12 CB4         16.0170    18.6790     3.6230 ca         1 UNI      -0.115000
     13 CB5         16.4930    18.7740     4.9400 ca         1 UNI       0.235000
     14 CB6         16.2640    19.9470     5.6810 ca         1 UNI      -0.086000
     15 CG1         15.2850    22.3320     5.9050 c3         1 UNI       0.091800
     16 CG2         15.4400    22.2070     7.4280 cx         1 UNI      -0.120700
     17 CG3         15.5500    23.4420     8.2930 cx         1 UNI      -0.131400
     18 CG4         16.7440    22.5350     8.1190 cx         1 UNI      -0.131400
     19 CD1          9.8280    24.1530     4.9110 c3         1 UNI      -0.042200
     20 CD2          9.3140    24.0050     3.4580 c3         1 UNI      -0.065400
     21 CD3         10.2360    24.5750     2.3530 c3         1 UNI      -0.076400
     22 CD4         10.4310    26.1080     2.3630 c3         1 UNI      -0.072400
     23 CD5         11.0030    26.7440     3.6550 c3         1 UNI      -0.065400
     24 CD6         12.3270    26.1470     4.2010 c3         1 UNI      -0.015200
     25 N           17.1600    17.6940     5.5070 nu         1 UNI      -0.903100
     26 S           18.8120    17.6120     5.7950 sy         1 UNI       1.163600
     27 O1          18.9470    16.3460     6.5170 o          1 UNI      -0.545000
     28 O2          19.3960    17.8180     4.4680 o          1 UNI      -0.545000
     29 CZ1         19.2100    18.9930     6.8780 ca         1 UNI      -0.250500
     30 CZ2         19.0520    18.8630     8.2730 ca         1 UNI      -0.012000
     31 CZ3         19.3850    19.9350     9.1200 ca         1 UNI      -0.097500
     32 CZ4         19.8750    21.1400     8.5810 ca         1 UNI       0.033000
     33 CZ5         20.0210    21.2710     7.1870 ca         1 UNI      -0.097500
     34 CZ6         19.6880    20.2030     6.3360 ca         1 UNI      -0.012000
     35 CZ7         20.2180    22.2340     9.4500 cg         1 UNI       0.313000
     36 NZ7         20.4860    23.1270    10.1540 n1         1 UNI      -0.435000
     37 HO6         14.4470    25.8470     4.4960 ho         1 UNI       0.478000
     38 HB2         14.6130    21.7690     3.3010 ha         1 UNI       0.114000
     39 HB3         14.9960    19.6950     2.0090 ha         1 UNI       0.117000
     40 HB4         16.1810    17.7740     3.0450 ha         1 UNI       0.118000
     41 HB6         16.6240    19.9920     6.7030 ha         1 UNI       0.131000
     42 HG1         16.0680    23.0260     5.5760 hc         1 UNI       0.072700
     43 HG2         14.8660    21.3830     7.8450 hc         1 UNI       0.097700
     44 HG31        15.5750    24.4110     7.8010 hc         1 UNI       0.070700
     45 HG32        15.0410    23.4330     9.2540 hc         1 UNI       0.070700
     46 HG41        17.0360    21.9160     8.9640 hc         1 UNI       0.070700
     47 HG42        17.5700    22.9000     7.5130 hc         1 UNI       0.070700
     48 HD11         9.2740    23.4310     5.5240 hc         1 UNI       0.072200
     49 HD12         9.5430    25.1130     5.3450 hc         1 UNI       0.072200
     50 HD21         9.1790    22.9350     3.2560 hc         1 UNI       0.051200
     51 HD22         8.3190    24.4590     3.3790 hc         1 UNI       0.051200
     52 HD31        11.2120    24.0780     2.3850 hc         1 UNI       0.044700
     53 HD32         9.8040    24.3010     1.3820 hc         1 UNI       0.044700
     54 HD41        11.0970    26.3660     1.5290 hc         1 UNI       0.040700
     55 HD42         9.4690    26.5860     2.1400 hc         1 UNI       0.040700
     56 HD51        11.2130    27.7920     3.4090 hc         1 UNI       0.044200
     57 HD52        10.2450    26.8200     4.4360 hc         1 UNI       0.044200
     58 HD61        12.6830    26.8460     4.9680 hc         1 UNI       0.040200
     59 HD62        13.0420    26.2280     3.3720 hc         1 UNI       0.040200
     60 HN          17.0050    16.8190     5.0260 hn         1 UNI       0.495000
     61 HZ2         18.6770    17.9360     8.7030 ha         1 UNI       0.143500
     62 HZ3         19.2620    19.8250    10.1950 ha         1 UNI       0.131500
     63 HZ5         20.3930    22.2000     6.7600 ha         1 UNI       0.131500
     64 HZ6         19.8080    20.3200     5.2600 ha         1 UNI       0.143500
@<TRIPOS>BOND
     1     1     2 1   
     2     1     7 2   
     3     1    15 1   
     4     2     3 2   
     5     2     4 1   
     6     4     5 1   
     7     5     6 2   
     8     5    19 1   
     9     6     7 1   
    10     6    24 1   
    11     7     8 1   
    12     8    37 1   
    13     9    10 ar  
    14     9    14 ar  
    15     9    15 1   
    16    10    11 ar  
    17    10    38 1   
    18    11    12 ar  
    19    11    39 1   
    20    12    13 ar  
    21    12    40 1   
    22    13    14 ar  
    23    13    25 1   
    24    14    41 1   
    25    15    16 1   
    26    15    42 1   
    27    16    17 1   
    28    16    18 1   
    29    16    43 1   
    30    17    18 1   
    31    17    44 1   
    32    17    45 1   
    33    18    46 1   
    34    18    47 1   
    35    19    20 1   
    36    19    48 1   
    37    19    49 1   
    38    20    21 1   
    39    20    50 1   
    40    20    51 1   
    41    21    22 1   
    42    21    52 1   
    43    21    53 1   
    44    22    23 1   
    45    22    54 1   
    46    22    55 1   
    47    23    24 1   
    48    23    56 1   
    49    23    57 1   
    50    24    58 1   
    51    24    59 1   
    52    25    26 1   
    53    25    60 1   
    54    26    27 2   
    55    26    28 2   
    56    26    29 1   
    57    29    30 ar  
    58    29    34 ar  
    59    30    31 ar  
    60    30    61 1   
    61    31    32 ar  
    62    31    62 1   
    63    32    33 ar  
    64    32    35 1   
    65    33    34 ar  
    66    33    63 1   
    67    34    64 1   
    68    35    36 3   
@<TRIPOS>SUBSTRUCTURE
     1 UNI         1 TEMP              0 ****  ****    0 ROOT
