@<TRIPOS>MOLECULE
UNJ
   17    18     1     0     0
SMALL
abcg2


@<TRIPOS>ATOM
      1 C1          -2.8180    -0.1810     0.0130 cc         1 UNJ       0.008900
      2 O2          -2.2730     1.0700     0.0180 os         1 UNJ      -0.139200
      3 C3          -1.8550    -1.1320     0.0080 cd         1 UNJ      -0.282200
      4 C4          -0.6030    -0.4370     0.0110 ca         1 UNJ      -0.104800
      5 C5          -4.3200    -0.3010     0.0130 c          1 UNJ       0.735200
      6 C6          -0.9370     0.9200     0.0170 ca         1 UNJ       0.046100
      7 C7           0.7400    -0.8180     0.0090 ca         1 UNJ      -0.051000
      8 O8          -4.9600     0.7610     0.0150 o          1 UNJ      -0.687500
      9 C9           0.0070     1.9320     0.0220 ca         1 UNJ      -0.101000
     10 C10          1.6830     0.1920     0.0140 ca         1 UNJ      -0.043900
     11 O11         -4.7440    -1.4700     0.0120 o          1 UNJ      -0.687500
     12 C12          1.3380     1.5490     0.0200 ca         1 UNJ      -0.108000
     13 BR13         3.5190    -0.2690     0.0120 br         1 UNJ      -0.155100
     14 H3          -2.0150    -2.1970     0.0050 ha         1 UNJ       0.217000
     15 H7           1.0210    -1.8620     0.0040 ha         1 UNJ       0.121000
     16 H9          -0.2690     2.9780     0.0270 ha         1 UNJ       0.122000
     17 H12          2.1070     2.3090     0.0240 ha         1 UNJ       0.110000
@<TRIPOS>BOND
     1     1     2 1   
     2     1     3 2   
     3     1     5 1   
     4     2     6 1   
     5     3     4 1   
     6     3    14 1   
     7     4     6 ar  
     8     4     7 ar  
     9     5     8 1   
    10     5    11 1   
    11     6     9 ar  
    12     7    10 ar  
    13     7    15 1   
    14     9    12 ar  
    15     9    16 1   
    16    10    12 ar  
    17    10    13 1   
    18    12    17 1   
@<TRIPOS>SUBSTRUCTURE
     1 UNJ         1 TEMP              0 ****  ****    0 ROOT
