@<TRIPOS>MOLECULE
UNJ
   17    18     1     0     0
SMALL
No Charge or Current Charge


@<TRIPOS>ATOM
      1 C1          -2.8640    -0.1170     0.0130 cc         1 UNJ       0.008900
      2 O2          -2.3100     1.1700     0.0190 os         1 UNJ      -0.139200
      3 C3          -1.8510    -1.0660     0.0090 cd         1 UNJ      -0.282200
      4 C4          -0.6070    -0.3690     0.0120 ca         1 UNJ      -0.104800
      5 C5          -4.3400    -0.3730     0.0130 c          1 UNJ       0.735200
      6 C6          -0.9440     0.9590     0.0180 ca         1 UNJ       0.046100
      7 C7           0.7200    -0.8140     0.0100 ca         1 UNJ      -0.051000
      8 O8          -5.1050     0.5840     0.0170 o          1 UNJ      -0.687500
      9 C9           0.0430     1.9540     0.0220 ca         1 UNJ      -0.101000
     10 C10          1.7310     0.1710     0.0140 ca         1 UNJ      -0.043900
     11 O11         -4.7380    -1.5320     0.0080 o          1 UNJ      -0.687500
     12 C12          1.3960     1.5470     0.0200 ca         1 UNJ      -0.108000
     13 Br13         3.5680    -0.3570     0.0110 br         1 UNJ      -0.155100
     14 H3          -1.9960    -2.1440     0.0050 ha         1 UNJ       0.217000
     15 H7           0.9610    -1.8750     0.0050 ha         1 UNJ       0.121000
     16 H9          -0.2280     3.0070     0.0260 ha         1 UNJ       0.122000
     17 H12          2.1840     2.2970     0.0230 ha         1 UNJ       0.110000
@<TRIPOS>BOND
     1     1     2 1   
     2     1     3 2   
     3     1     5 1   
     4     2     6 1   
     5     3     4 1   
     6     3    14 1   
     7     4     6 ar  
     8     4     7 ar  
     9     5     8 1   
    10     5    11 1   
    11     6     9 ar  
    12     7    10 ar  
    13     7    15 1   
    14     9    12 ar  
    15     9    16 1   
    16    10    12 ar  
    17    10    13 1   
    18    12    17 1   
@<TRIPOS>SUBSTRUCTURE
     1 UNJ         1 TEMP              0 ****  ****    0 ROOT
