@<TRIPOS>MOLECULE
UNM
   37    39     1     0     0
SMALL
abcg2


@<TRIPOS>ATOM
      1 C01         -2.2430     0.8930    -0.0620 ca         1 UNM       0.015100
      2 C02         -1.6740    -1.3900    -0.1160 ca         1 UNM      -0.064800
      3 C03         -2.6610    -0.4040    -0.2640 ca         1 UNM      -0.104000
      4 C04         -0.3750    -1.0340     0.2160 ca         1 UNM      -0.029900
      5 C05         -0.9310     1.2560     0.2710 ca         1 UNM      -0.218000
      6 C06          0.0600     0.2820     0.4280 ca         1 UNM       0.360000
      7 O07          0.4100    -2.1260     0.3100 os         1 UNM      -0.147200
      8 C08         -1.6460    -2.8180    -0.2270 cc         1 UNM      -0.285200
      9 C09         -0.3740    -3.2040     0.0370 cd         1 UNM       0.010900
     10 C10          0.2590    -4.5690     0.0710 c          1 UNM       0.735200
     11 O11         -0.5160    -5.5080    -0.1830 o          1 UNM      -0.690000
     12 O12          1.4690    -4.6110     0.3440 o          1 UNM      -0.690000
     13 BR13        -3.5130     2.2920    -0.2450 br         1 UNM      -0.167100
     14 C14          1.9230     1.8690     0.8610 c6         1 UNM       0.246500
     15 C15          3.2380     1.7990     1.6360 c6         1 UNM      -0.092400
     16 C16          4.3380     1.0780     0.8610 c6         1 UNM      -0.076900
     17 C17          4.5650     1.7130    -0.5060 c6         1 UNM       0.163500
     18 C18          3.2580     1.7530    -1.2900 c6         1 UNM      -0.076900
     19 C19          2.1630     2.4850    -0.5230 c6         1 UNM      -0.092400
     20 N20          5.5620     0.9520    -1.2470 n8         1 UNM      -0.989200
     21 N21          1.3420     0.5410     0.7980 nu         1 UNM      -0.972200
     22 H03         -3.6790    -0.6560    -0.5230 ha         1 UNM       0.123000
     23 H05         -0.6860     2.3000     0.4130 ha         1 UNM       0.111000
     24 H08         -2.4690    -3.4700    -0.4710 ha         1 UNM       0.215000
     25 H14          1.2340     2.5080     1.4210 h1         1 UNM       0.052700
     26 H15          3.5600     2.8220     1.8460 hc         1 UNM       0.044950
     27 H15A         3.0710     1.3210     2.6040 hc         1 UNM       0.044950
     28 H16          5.2630     1.1010     1.4440 hc         1 UNM       0.051950
     29 H16A         4.1010     0.0170     0.7240 hc         1 UNM       0.051950
     30 H17          4.8800     2.7570    -0.3340 h1         1 UNM       0.000700
     31 H18          3.4210     2.2400    -2.2570 hc         1 UNM       0.051950
     32 H18A         2.9440     0.7280    -1.5130 hc         1 UNM       0.051950
     33 H19          1.2370     2.4940    -1.1030 hc         1 UNM       0.044950
     34 H19A         2.4460     3.5340    -0.3850 hc         1 UNM       0.044950
     35 HN20         5.7600     1.4230    -2.1220 hn         1 UNM       0.387000
     36 HN2A         6.4360     0.9550    -0.7360 hn         1 UNM       0.387000
     37 HN21         1.9860    -0.2310     0.7530 hn         1 UNM       0.504000
@<TRIPOS>BOND
     1     1     3 ar  
     2     1     5 ar  
     3     1    13 1   
     4     2     3 ar  
     5     2     4 ar  
     6     2     8 1   
     7     3    22 1   
     8     4     6 ar  
     9     4     7 1   
    10     5     6 ar  
    11     5    23 1   
    12     6    21 1   
    13     7     9 1   
    14     8     9 2   
    15     8    24 1   
    16     9    10 1   
    17    10    11 1   
    18    10    12 1   
    19    14    15 1   
    20    14    19 1   
    21    14    21 1   
    22    14    25 1   
    23    15    16 1   
    24    15    26 1   
    25    15    27 1   
    26    16    17 1   
    27    16    28 1   
    28    16    29 1   
    29    17    18 1   
    30    17    20 1   
    31    17    30 1   
    32    18    19 1   
    33    18    31 1   
    34    18    32 1   
    35    19    33 1   
    36    19    34 1   
    37    20    35 1   
    38    20    36 1   
    39    21    37 1   
@<TRIPOS>SUBSTRUCTURE
     1 UNM         1 TEMP              0 ****  ****    0 ROOT
