@<TRIPOS>MOLECULE
UNM
   37    39     1     0     0
SMALL
No Charge or Current Charge


@<TRIPOS>ATOM
      1 C01         -2.3600     0.9470     0.1910 ca         1 UNM       0.015100
      2 C02         -1.5370    -1.2870    -0.1490 ca         1 UNM      -0.064800
      3 C03         -2.6020    -0.3820    -0.2200 ca         1 UNM      -0.104000
      4 C04         -0.2960    -0.8980     0.3030 ca         1 UNM      -0.029900
      5 C05         -1.0830     1.3450     0.6550 ca         1 UNM      -0.218000
      6 C06         -0.0210     0.4170     0.7130 ca         1 UNM       0.360000
      7 O07          0.5490    -1.9700     0.2670 os         1 UNM      -0.147200
      8 C08         -1.4650    -2.6920    -0.4890 cc         1 UNM      -0.285200
      9 C09         -0.1490    -3.0580    -0.2100 cd         1 UNM       0.010900
     10 C10          0.4800    -4.4130    -0.3780 c          1 UNM       0.735200
     11 O11         -0.2090    -5.3310    -0.8090 o          1 UNM      -0.690000
     12 O12          1.6600    -4.5580    -0.0780 o          1 UNM      -0.690000
     13 Br13        -3.7750     2.2290     0.1220 br         1 UNM      -0.167100
     14 C14          1.8990     2.0650     0.8750 c6         1 UNM       0.246500
     15 C15          3.2660     2.1430     1.6070 c6         1 UNM      -0.092400
     16 C16          4.3330     1.1940     0.9920 c6         1 UNM      -0.076900
     17 C17          4.4980     1.4460    -0.5290 c6         1 UNM       0.163500
     18 C18          3.1410     1.3140    -1.2650 c6         1 UNM      -0.076900
     19 C19          2.0800     2.2710    -0.6570 c6         1 UNM      -0.092400
     20 N20          5.4920     0.5240    -1.1020 n8         1 UNM      -0.989200
     21 N21          1.2540     0.7730     1.1630 nu         1 UNM      -0.972200
     22 H03         -3.5810    -0.6920    -0.5780 ha         1 UNM       0.123000
     23 H05         -0.9270     2.3710     0.9710 ha         1 UNM       0.111000
     24 H08         -2.2480    -3.3400    -0.8770 ha         1 UNM       0.215000
     25 H14          1.2680     2.8800     1.2610 h1         1 UNM       0.052700
     26 H15          3.6370     3.1760     1.5560 hc         1 UNM       0.044950
     27 H15A         3.1360     1.9220     2.6750 hc         1 UNM       0.044950
     28 H16          5.2930     1.3470     1.5030 hc         1 UNM       0.051950
     29 H16A         4.0510     0.1480     1.1710 hc         1 UNM       0.051950
     30 H17          4.8850     2.4640    -0.6800 h1         1 UNM       0.000700
     31 H18          3.2680     1.5420    -2.3320 hc         1 UNM       0.051950
     32 H18A         2.7800     0.2770    -1.2100 hc         1 UNM       0.051950
     33 H19          1.1210     2.1500    -1.1780 hc         1 UNM       0.044950
     34 H19A         2.3910     3.3090    -0.8390 hc         1 UNM       0.044950
     35 HN20         5.6450     0.7780    -2.0850 hn         1 UNM       0.387000
     36 HN2A         6.4010     0.7100    -0.6630 hn         1 UNM       0.387000
     37 HN21         1.8810    -0.0270     1.2360 hn         1 UNM       0.504000
@<TRIPOS>BOND
     1     1     3 ar  
     2     1     5 ar  
     3     1    13 1   
     4     2     3 ar  
     5     2     4 ar  
     6     2     8 1   
     7     3    22 1   
     8     4     6 ar  
     9     4     7 1   
    10     5     6 ar  
    11     5    23 1   
    12     6    21 1   
    13     7     9 1   
    14     8     9 2   
    15     8    24 1   
    16     9    10 1   
    17    10    11 1   
    18    10    12 1   
    19    14    15 1   
    20    14    19 1   
    21    14    21 1   
    22    14    25 1   
    23    15    16 1   
    24    15    26 1   
    25    15    27 1   
    26    16    17 1   
    27    16    28 1   
    28    16    29 1   
    29    17    18 1   
    30    17    20 1   
    31    17    30 1   
    32    18    19 1   
    33    18    31 1   
    34    18    32 1   
    35    19    33 1   
    36    19    34 1   
    37    20    35 1   
    38    20    36 1   
    39    21    37 1   
@<TRIPOS>SUBSTRUCTURE
     1 UNM         1 TEMP              0 ****  ****    0 ROOT
