@<TRIPOS>MOLECULE
UNN
   47    50     1     0     0
SMALL
abcg2


@<TRIPOS>ATOM
      1 C1          -0.3110     1.0830    -2.7800 ca         1 UNN      -0.090000
      2 C2          -0.7250     1.1470    -4.0770 ca         1 UNN       0.113000
      3 C3          -0.2300     0.2470    -5.0320 ca         1 UNN       0.169000
      4 C4           0.6730    -0.7140    -4.6900 ca         1 UNN      -0.127000
      5 C5           1.1180    -0.8070    -3.3560 ca         1 UNN       0.068000
      6 N6           2.0070    -1.7830    -3.0370 nb         1 UNN      -0.214000
      7 C7           2.3730    -1.8260    -1.7870 ca         1 UNN       0.180900
      8 N8           1.9930    -1.0240    -0.7880 nb         1 UNN      -0.300000
      9 C9           1.1330    -0.0570    -1.0600 ca         1 UNN       0.421900
     10 C10          0.6250     0.1040    -2.4000 ca         1 UNN      -0.179000
     11 N11          0.7450     0.7580    -0.0770 nu         1 UNN      -0.914100
     12 C12          1.1630     0.6550     1.3080 c3         1 UNN       0.240500
     13 C13         -1.1730    -0.2570     1.8100 ca         1 UNN      -0.077300
     14 C14         -0.0840     0.7180     2.2080 c3         1 UNN       0.017900
     15 C15         -0.9010    -1.5500     1.3670 ca         1 UNN      -0.102750
     16 C16         -1.9330    -2.4250     1.0550 ca         1 UNN      -0.109000
     17 C17         -3.2560    -2.0240     1.1810 ca         1 UNN      -0.106000
     18 C18         -3.5390    -0.7370     1.6180 ca         1 UNN      -0.109000
     19 C19         -2.5040     0.1350     1.9270 ca         1 UNN      -0.102750
     20 C20          0.2700     0.5490     3.6700 ca         1 UNN      -0.077300
     21 C21         -0.0220     1.5600     4.5810 ca         1 UNN      -0.102750
     22 C22          0.2790     1.4150     5.9300 ca         1 UNN      -0.109000
     23 C23          0.8840     0.2530     6.3860 ca         1 UNN      -0.106000
     24 C24          1.1810    -0.7620     5.4840 ca         1 UNN      -0.109000
     25 C25          0.8750    -0.6160     4.1390 ca         1 UNN      -0.102750
     26 F28         -1.6140     2.0620    -4.4700 f          1 UNN      -0.160000
     27 F29         -0.6710     0.3550    -6.2840 f          1 UNN      -0.154000
     28 C31          2.1630     1.7520     1.6510 c3         1 UNN      -0.108100
     29 H1          -0.7260     1.7970    -2.0810 ha         1 UNN       0.128000
     30 H4           1.0480    -1.4090    -5.4300 ha         1 UNN       0.156000
     31 H7           3.0780    -2.6050    -1.5120 h5         1 UNN       0.046100
     32 HN           0.1370     1.5290    -0.2990 hn         1 UNN       0.494000
     33 H12          1.6570    -0.3090     1.4160 h1         1 UNN       0.096700
     34 H14         -0.4980     1.7270     2.0960 hc         1 UNN       0.051700
     35 H15          0.1200    -1.8930     1.2520 ha         1 UNN       0.113250
     36 H16         -1.6970    -3.4240     0.7100 ha         1 UNN       0.113750
     37 H17         -4.0590    -2.7070     0.9370 ha         1 UNN       0.114000
     38 H18         -4.5650    -0.4090     1.7170 ha         1 UNN       0.113750
     39 H19         -2.7350     1.1390     2.2650 ha         1 UNN       0.113250
     40 H21         -0.4900     2.4730     4.2310 ha         1 UNN       0.113250
     41 H22          0.0410     2.2120     6.6220 ha         1 UNN       0.113750
     42 H23          1.1200     0.1360     7.4350 ha         1 UNN       0.114000
     43 H24          1.6510    -1.6740     5.8310 ha         1 UNN       0.113750
     44 H25          1.1040    -1.4260     3.4580 ha         1 UNN       0.113250
     45 H311         1.7060     2.7410     1.5680 hc         1 UNN       0.046700
     46 H312         2.5330     1.6380     2.6690 hc         1 UNN       0.046700
     47 H313         3.0170     1.7130     0.9760 hc         1 UNN       0.046700
@<TRIPOS>BOND
     1     1     2 ar  
     2     1    10 ar  
     3     1    29 1   
     4     2     3 ar  
     5     2    26 1   
     6     3     4 ar  
     7     3    27 1   
     8     4     5 ar  
     9     4    30 1   
    10     5     6 ar  
    11     5    10 ar  
    12     6     7 ar  
    13     7     8 ar  
    14     7    31 1   
    15     8     9 ar  
    16     9    10 ar  
    17     9    11 1   
    18    11    12 1   
    19    11    32 1   
    20    12    14 1   
    21    12    28 1   
    22    12    33 1   
    23    13    14 1   
    24    13    15 ar  
    25    13    19 ar  
    26    14    20 1   
    27    14    34 1   
    28    15    16 ar  
    29    15    35 1   
    30    16    17 ar  
    31    16    36 1   
    32    17    18 ar  
    33    17    37 1   
    34    18    19 ar  
    35    18    38 1   
    36    19    39 1   
    37    20    21 ar  
    38    20    25 ar  
    39    21    22 ar  
    40    21    40 1   
    41    22    23 ar  
    42    22    41 1   
    43    23    24 ar  
    44    23    42 1   
    45    24    25 ar  
    46    24    43 1   
    47    25    44 1   
    48    28    45 1   
    49    28    46 1   
    50    28    47 1   
@<TRIPOS>SUBSTRUCTURE
     1 UNN         1 TEMP              0 ****  ****    0 ROOT
