@<TRIPOS>MOLECULE
UNN
   47    50     1     0     0
SMALL
No Charge or Current Charge


@<TRIPOS>ATOM
      1 C1          -0.5980     1.3510    -1.9870 ca         1 UNN      -0.090000
      2 C2          -1.6440     1.3350    -2.9210 ca         1 UNN       0.113000
      3 C3          -1.7530     0.2770    -3.8400 ca         1 UNN       0.169000
      4 C4          -0.8180    -0.7680    -3.8250 ca         1 UNN      -0.127000
      5 C5           0.2350    -0.7730    -2.8910 ca         1 UNN       0.068000
      6 N6           1.1180    -1.7920    -2.8700 nb         1 UNN      -0.214000
      7 C7           2.0910    -1.7490    -1.9380 ca         1 UNN       0.180900
      8 N8           2.2770    -0.7890    -1.0150 nb         1 UNN      -0.300000
      9 C9           1.4070     0.2340    -1.0320 ca         1 UNN       0.421900
     10 C10          0.3480     0.2970    -1.9680 ca         1 UNN      -0.179000
     11 N11          1.5900     1.1970    -0.0430 nu         1 UNN      -0.914100
     12 C12          1.6960     0.8970     1.3990 c3         1 UNN       0.240500
     13 C13         -0.5800    -0.3440     1.3310 ca         1 UNN      -0.077300
     14 C14          0.2770     0.7160     2.0390 c3         1 UNN       0.017900
     15 C15         -0.1160    -1.6660     1.1620 ca         1 UNN      -0.102750
     16 C16         -0.8920    -2.6120     0.4710 ca         1 UNN      -0.109000
     17 C17         -2.1450    -2.2500    -0.0500 ca         1 UNN      -0.106000
     18 C18         -2.6230    -0.9420     0.1260 ca         1 UNN      -0.109000
     19 C19         -1.8470     0.0050     0.8160 ca         1 UNN      -0.102750
     20 C20          0.3050     0.4390     3.5490 ca         1 UNN      -0.077300
     21 C21         -0.6050     1.1110     4.3920 ca         1 UNN      -0.102750
     22 C22         -0.6050     0.8750     5.7780 ca         1 UNN      -0.109000
     23 C23          0.3010    -0.0400     6.3360 ca         1 UNN      -0.106000
     24 C24          1.2060    -0.7210     5.5060 ca         1 UNN      -0.109000
     25 C25          1.2080    -0.4860     4.1200 ca         1 UNN      -0.102750
     26 F28         -2.5480     2.3430    -2.9280 f          1 UNN      -0.160000
     27 F29         -2.7610     0.2570    -4.7420 f          1 UNN      -0.154000
     28 C31          2.5060     2.0330     2.0600 c3         1 UNN      -0.108100
     29 H1          -0.5450     2.1750    -1.2810 ha         1 UNN       0.128000
     30 H4          -0.9160    -1.5830    -4.5370 ha         1 UNN       0.156000
     31 H7           2.7950    -2.5800    -1.9290 h5         1 UNN       0.046100
     32 HN           1.1380     2.0810    -0.2610 hn         1 UNN       0.494000
     33 H12          2.2710    -0.0290     1.5370 h1         1 UNN       0.096700
     34 H14         -0.2180     1.6850     1.8990 hc         1 UNN       0.051700
     35 H15          0.8560    -1.9610     1.5490 ha         1 UNN       0.113250
     36 H16         -0.5200    -3.6250     0.3360 ha         1 UNN       0.113750
     37 H17         -2.7440    -2.9820    -0.5880 ha         1 UNN       0.114000
     38 H18         -3.5930    -0.6590    -0.2760 ha         1 UNN       0.113750
     39 H19         -2.2280     1.0170     0.9370 ha         1 UNN       0.113250
     40 H21         -1.3160     1.8200     3.9740 ha         1 UNN       0.113250
     41 H22         -1.3100     1.4000     6.4180 ha         1 UNN       0.113750
     42 H23          0.3010    -0.2230     7.4080 ha         1 UNN       0.114000
     43 H24          1.9070    -1.4340     5.9370 ha         1 UNN       0.113750
     44 H25          1.9140    -1.0300     3.4990 ha         1 UNN       0.113250
     45 H311         1.9790     2.9910     1.9790 hc         1 UNN       0.046700
     46 H312         2.6760     1.8250     3.1220 hc         1 UNN       0.046700
     47 H313         3.4860     2.1360     1.5800 hc         1 UNN       0.046700
@<TRIPOS>BOND
     1     1     2 ar  
     2     1    10 ar  
     3     1    29 1   
     4     2     3 ar  
     5     2    26 1   
     6     3     4 ar  
     7     3    27 1   
     8     4     5 ar  
     9     4    30 1   
    10     5     6 ar  
    11     5    10 ar  
    12     6     7 ar  
    13     7     8 ar  
    14     7    31 1   
    15     8     9 ar  
    16     9    10 ar  
    17     9    11 1   
    18    11    12 1   
    19    11    32 1   
    20    12    14 1   
    21    12    28 1   
    22    12    33 1   
    23    13    14 1   
    24    13    15 ar  
    25    13    19 ar  
    26    14    20 1   
    27    14    34 1   
    28    15    16 ar  
    29    15    35 1   
    30    16    17 ar  
    31    16    36 1   
    32    17    18 ar  
    33    17    37 1   
    34    18    19 ar  
    35    18    38 1   
    36    19    39 1   
    37    20    21 ar  
    38    20    25 ar  
    39    21    22 ar  
    40    21    40 1   
    41    22    23 ar  
    42    22    41 1   
    43    23    24 ar  
    44    23    42 1   
    45    24    25 ar  
    46    24    43 1   
    47    25    44 1   
    48    28    45 1   
    49    28    46 1   
    50    28    47 1   
@<TRIPOS>SUBSTRUCTURE
     1 UNN         1 TEMP              0 ****  ****    0 ROOT
