@<TRIPOS>MOLECULE
UNP
   41    42     1     0     0
SMALL
bcc


@<TRIPOS>ATOM
      1 O2G         -5.1450    -2.5010    -1.1980 o          1 UNP      -0.928833
      2 PG          -5.5040    -1.9710     0.1860 p5         1 UNP       1.295800
      3 O3G         -6.7710    -1.1150     0.2170 o          1 UNP      -0.928833
      4 O1G         -5.4510    -3.0260     1.2960 o          1 UNP      -0.928833
      5 N2B         -4.1540    -0.9140     0.6540 n7         1 UNP      -0.905400
      6 PB          -3.9090     0.6230     0.0390 p5         1 UNP       1.443700
      7 O1B         -4.4100     0.7350    -1.3710 o          1 UNP      -0.892000
      8 O3B         -4.2530     1.6910     1.0450 o          1 UNP      -0.892000
      9 O3A         -2.2190     0.5880    -0.0350 os         1 UNP      -0.694800
     10 PA          -1.3350     1.4820    -1.0520 p5         1 UNP       1.448800
     11 O1A         -1.0440     0.7410    -2.3230 o          1 UNP      -0.872000
     12 O2A         -1.8120     2.9020    -1.1150 o          1 UNP      -0.872000
     13 O5           0.0260     1.4220    -0.0980 os         1 UNP      -0.520200
     14 C5           1.2320     1.8590    -0.6690 c3         1 UNP       0.218400
     15 C4           2.2860     1.9350     0.4060 c5         1 UNP       0.134100
     16 C3           3.6520     2.3820    -0.0990 c5         1 UNP       0.053100
     17 O3           3.7150     3.7790    -0.1650 oh         1 UNP      -0.573800
     18 C2           4.5870     1.7690     0.9500 c5         1 UNP       0.062100
     19 O2           4.5940     2.5360     2.1230 oh         1 UNP      -0.586800
     20 O4           2.5210     0.6420     0.9670 os         1 UNP      -0.340600
     21 C1           3.8690     0.4530     1.2560 c5         1 UNP       0.314500
     22 N1           4.4020    -0.6610     0.4410 n          1 UNP      -0.383000
     23 C9           5.5800    -1.2260     0.8820 c          1 UNP       0.815500
     24 O6           6.1600    -0.8320     1.8730 o          1 UNP      -0.686500
     25 C6           3.7840    -1.1170    -0.6840 cc         1 UNP       0.049600
     26 C7           4.2670    -2.1270    -1.4290 cd         1 UNP      -0.370200
     27 C8           5.4890    -2.7830    -1.0400 c          1 UNP       0.719700
     28 N3           6.0480    -2.2600     0.1170 ns         1 UNP      -0.609500
     29 O7           6.0270    -3.7070    -1.6220 o          1 UNP      -0.681500
     30 HN2B        -3.9980    -0.9550     1.6530 hn         1 UNP       0.331800
     31 H5           1.5640     1.1900    -1.4730 h1         1 UNP       0.005700
     32 H5'A         1.1410     2.8620    -1.1080 h1         1 UNP       0.005700
     33 H4           1.9460     2.6130     1.1990 h1         1 UNP       0.086700
     34 H3           3.8550     1.9250    -1.0770 h1         1 UNP       0.050700
     35 HO3          4.4360     4.0300    -0.7510 ho         1 UNP       0.383000
     36 H2           5.6000     1.6090     0.5630 h1         1 UNP       0.035700
     37 HO2          4.5650     3.4660     1.8650 ho         1 UNP       0.410000
     38 H1           3.9950     0.1640     2.3010 h2         1 UNP       0.103700
     39 H6           2.8610    -0.6290    -0.9540 h4         1 UNP       0.217000
     40 H7           3.7400    -2.4570    -2.3110 ha         1 UNP       0.176000
     41 HN3          6.9130    -2.6780     0.4380 hn         1 UNP       0.306500
@<TRIPOS>BOND
     1     1     2 1   
     2     2     3 1   
     3     2     4 1   
     4     2     5 1   
     5     5     6 1   
     6     5    30 1   
     7     6     7 1   
     8     6     8 1   
     9     6     9 1   
    10     9    10 1   
    11    10    11 1   
    12    10    12 1   
    13    10    13 1   
    14    13    14 1   
    15    14    15 1   
    16    14    31 1   
    17    14    32 1   
    18    15    16 1   
    19    15    20 1   
    20    15    33 1   
    21    16    17 1   
    22    16    18 1   
    23    16    34 1   
    24    17    35 1   
    25    18    19 1   
    26    18    21 1   
    27    18    36 1   
    28    19    37 1   
    29    20    21 1   
    30    21    22 1   
    31    21    38 1   
    32    22    23 1   
    33    22    25 1   
    34    23    24 2   
    35    23    28 1   
    36    25    26 2   
    37    25    39 1   
    38    26    27 1   
    39    26    40 1   
    40    27    28 1   
    41    27    29 2   
    42    28    41 1   
@<TRIPOS>SUBSTRUCTURE
     1 UNP         1 TEMP              0 ****  ****    0 ROOT
