@<TRIPOS>MOLECULE
UNP
   41    42     1     0     0
SMALL
No Charge or Current Charge


@<TRIPOS>ATOM
      1 O2G         -4.5540    -1.1500    -2.5220 o          1 UNP      -0.928833
      2 PG          -4.3630    -1.7880    -1.1940 p5         1 UNP       1.295800
      3 O3G         -5.6000    -1.8250    -0.3770 o          1 UNP      -0.928833
      4 O1G         -3.8320    -3.1630    -1.3560 o          1 UNP      -0.928833
      5 N2B         -3.2070    -1.0400    -0.4030 n7         1 UNP      -0.960600
      6 PB          -3.4460     0.3460     0.3380 p5         1 UNP       1.443700
      7 O1B         -4.4810     1.1980    -0.3160 o          1 UNP      -0.892000
      8 O3B         -3.7380    -0.1000     1.7260 o          1 UNP      -0.892000
      9 O3A         -1.9600     0.8320     0.1590 os         1 UNP      -0.694800
     10 PA          -1.7500     2.3500     0.5400 p5         1 UNP       1.448800
     11 O1A         -2.0260     3.2900    -0.5900 o          1 UNP      -0.872000
     12 O2A         -2.4260     2.7740     1.8030 o          1 UNP      -0.872000
     13 O5          -0.1640     2.2650     0.8130 os         1 UNP      -0.543400
     14 C5           0.7260     2.1750    -0.3050 c3         1 UNP       0.241600
     15 C4           2.1800     2.0770     0.2220 c5         1 UNP       0.157300
     16 C3           3.2860     2.1750    -0.8740 c5         1 UNP       0.076300
     17 O3           3.5050     3.5090    -1.3740 oh         1 UNP      -0.696000
     18 C2           4.5310     1.6690    -0.0760 c5         1 UNP       0.085300
     19 O2           5.1400     2.8070     0.5450 oh         1 UNP      -0.709000
     20 O4           2.4400     0.7730     0.7830 os         1 UNP      -0.387000
     21 C1           3.8670     0.6770     0.9600 c5         1 UNP       0.337700
     22 N1           4.3380    -0.7090     0.6870 n          1 UNP      -0.316000
     23 C9           5.1470    -1.3380     1.6530 c          1 UNP       0.606000
     24 O6           5.4370    -0.8330     2.7250 o          1 UNP      -0.611000
     25 C6           4.0530    -1.3290    -0.5350 cc         1 UNP      -0.000400
     26 C7           4.5710    -2.5800    -0.7830 cd         1 UNP      -0.420200
     27 C8           5.4090    -3.2800     0.1900 c          1 UNP       0.577200
     28 N3           5.6150    -2.5760     1.3310 ns         1 UNP      -0.475500
     29 O7           5.8840    -4.3870     0.0100 o          1 UNP      -0.606000
     30 HN2B        -3.3490    -1.4930     0.4820 hn         1 UNP       0.387000
     31 H5           0.5010     1.2960    -0.9240 h1         1 UNP       0.005700
     32 H5'A         0.6400     3.0710    -0.9330 h1         1 UNP       0.005700
     33 H4           2.3270     2.8400     0.9990 h1         1 UNP       0.086700
     34 H3           3.0610     1.4890    -1.7040 h1         1 UNP       0.050700
     35 HO3          2.9180     3.6380    -2.1570 ho         1 UNP       0.482000
     36 H2           5.2520     1.1670    -0.7360 h1         1 UNP       0.035700
     37 HO2          4.8010     3.5520    -0.0190 ho         1 UNP       0.509000
     38 H1           4.1390     0.9550     1.9860 h2         1 UNP       0.103700
     39 H6           3.4080    -0.7540    -1.1990 h4         1 UNP       0.267000
     40 H7           4.3830    -3.1190    -1.7050 ha         1 UNP       0.226000
     41 HN3          6.1900    -3.0220     2.0270 hn         1 UNP       0.306500
@<TRIPOS>BOND
     1     1     2 1   
     2     2     3 1   
     3     2     4 1   
     4     2     5 1   
     5     5     6 1   
     6     5    30 1   
     7     6     7 1   
     8     6     8 1   
     9     6     9 1   
    10     9    10 1   
    11    10    11 1   
    12    10    12 1   
    13    10    13 1   
    14    13    14 1   
    15    14    15 1   
    16    14    31 1   
    17    14    32 1   
    18    15    16 1   
    19    15    20 1   
    20    15    33 1   
    21    16    17 1   
    22    16    18 1   
    23    16    34 1   
    24    17    35 1   
    25    18    19 1   
    26    18    21 1   
    27    18    36 1   
    28    19    37 1   
    29    20    21 1   
    30    21    22 1   
    31    21    38 1   
    32    22    23 1   
    33    22    25 1   
    34    23    24 2   
    35    23    28 1   
    36    25    26 2   
    37    25    39 1   
    38    26    27 1   
    39    26    40 1   
    40    27    28 1   
    41    27    29 2   
    42    28    41 1   
@<TRIPOS>SUBSTRUCTURE
     1 UNP         1 TEMP              0 ****  ****    0 ROOT
