@<TRIPOS>MOLECULE
UNQ
   45    48     1     0     0
SMALL
abcg2


@<TRIPOS>ATOM
      1 C01         23.4010   -37.3210    -0.4870 cp         1 UNQ      -0.206500
      2 C02         22.7460   -35.0800    -1.0680 ca         1 UNQ      -0.112800
      3 C03         22.8430   -36.0960    -0.1190 ca         1 UNQ      -0.026000
      4 C04         23.2110   -35.3130    -2.3730 ca         1 UNQ       0.059100
      5 C05         23.8620   -37.5110    -1.8090 ca         1 UNQ      -0.102000
      6 C06         23.7730   -36.5140    -2.7700 ca         1 UNQ      -0.114000
      7 O07         23.0310   -34.2050    -3.1420 os         1 UNQ      -0.155200
      8 C08         22.2580   -33.7280    -1.0760 cc         1 UNQ      -0.276200
      9 C09         22.4480   -33.2430    -2.3300 cd         1 UNQ       0.017900
     10 C10         22.1400   -31.8980    -2.9360 c          1 UNQ       0.727200
     11 O11         21.6480   -31.0580    -2.1430 o          1 UNQ      -0.691000
     12 O12         22.3970   -31.7450    -4.1520 o          1 UNQ      -0.691000
     13 C13         23.5060   -38.4050     0.5180 cp         1 UNQ       0.449500
     14 C14         23.4750   -39.0060     2.7390 ca         1 UNQ       0.578900
     15 N15         23.3930   -38.0530     1.8100 nb         1 UNQ      -0.736000
     16 C16         23.7140   -40.3530     2.3610 ca         1 UNQ       0.193900
     17 C17         23.7030   -39.7380     0.1640 ca         1 UNQ       0.207900
     18 N18         23.8170   -40.6990     1.0950 nb         1 UNQ      -0.607000
     19 N19         23.3070   -38.6810     4.0450 nu         1 UNQ      -0.937100
     20 C20         23.2020   -37.3140     4.5360 c6         1 UNQ       0.236500
     21 C21         22.5180   -37.3110     5.9020 c6         1 UNQ      -0.087400
     22 C22         22.3880   -35.8940     6.4600 c6         1 UNQ      -0.087900
     23 C23         23.7330   -35.1710     6.5260 c6         1 UNQ       0.151500
     24 C24         24.4160   -35.1930     5.1530 c6         1 UNQ      -0.087900
     25 C25         24.5640   -36.6140     4.6120 c6         1 UNQ      -0.087400
     26 N26         23.5430   -33.8210     7.0740 n8         1 UNQ      -0.996200
     27 H03         22.4920   -35.9490     0.8930 ha         1 UNQ       0.124000
     28 H05         24.3180   -38.4500    -2.0870 ha         1 UNQ       0.098000
     29 H06         24.1360   -36.6670    -3.7780 ha         1 UNQ       0.122000
     30 H08         21.8230   -33.1810    -0.2560 ha         1 UNQ       0.215000
     31 H16         23.8100   -41.1250     3.1170 h4         1 UNQ       0.013100
     32 H17         23.7650   -40.0520    -0.8680 h4         1 UNQ       0.029100
     33 HN19        23.5210   -39.3970     4.7220 hn         1 UNQ       0.479000
     34 H20         22.5740   -36.7680     3.8290 h1         1 UNQ       0.086700
     35 H21         21.5340   -37.7770     5.8200 hc         1 UNQ       0.045450
     36 H21A        23.1080   -37.9250     6.5930 hc         1 UNQ       0.045450
     37 H22         21.7130   -35.3120     5.8200 hc         1 UNQ       0.047700
     38 H22A        21.9390   -35.9210     7.4550 hc         1 UNQ       0.047700
     39 H23         24.3750   -35.7130     7.2310 h1         1 UNQ       0.052700
     40 H24         23.8140   -34.5950     4.4580 hc         1 UNQ       0.047700
     41 H24A        25.3950   -34.7110     5.2230 hc         1 UNQ       0.047700
     42 H25         25.2160   -37.1980     5.2700 hc         1 UNQ       0.045450
     43 H25A        25.0250   -36.6040     3.6230 hc         1 UNQ       0.045450
     44 HN26        24.4370   -33.3380     7.1000 hn         1 UNQ       0.392500
     45 HN2A        22.9580   -33.2840     6.4380 hn         1 UNQ       0.392500
@<TRIPOS>BOND
     1     1     3 ar  
     2     1     5 ar  
     3     1    13 1   
     4     2     3 ar  
     5     2     4 ar  
     6     2     8 1   
     7     3    27 1   
     8     4     6 ar  
     9     4     7 1   
    10     5     6 ar  
    11     5    28 1   
    12     6    29 1   
    13     7     9 1   
    14     8     9 2   
    15     8    30 1   
    16     9    10 1   
    17    10    11 1   
    18    10    12 1   
    19    13    15 ar  
    20    13    17 ar  
    21    14    15 ar  
    22    14    16 ar  
    23    14    19 1   
    24    16    18 ar  
    25    16    31 1   
    26    17    18 ar  
    27    17    32 1   
    28    19    20 1   
    29    19    33 1   
    30    20    21 1   
    31    20    25 1   
    32    20    34 1   
    33    21    22 1   
    34    21    35 1   
    35    21    36 1   
    36    22    23 1   
    37    22    37 1   
    38    22    38 1   
    39    23    24 1   
    40    23    26 1   
    41    23    39 1   
    42    24    25 1   
    43    24    40 1   
    44    24    41 1   
    45    25    42 1   
    46    25    43 1   
    47    26    44 1   
    48    26    45 1   
@<TRIPOS>SUBSTRUCTURE
     1 UNQ         1 TEMP              0 ****  ****    0 ROOT
