@<TRIPOS>MOLECULE
UNQ
   45    48     1     0     0
SMALL
No Charge or Current Charge


@<TRIPOS>ATOM
      1 C01         23.4380   -37.3350    -0.5170 cp         1 UNQ      -0.206500
      2 C02         22.7180   -35.1000    -1.1830 ca         1 UNQ      -0.112800
      3 C03         22.7980   -36.0940    -0.2010 ca         1 UNQ      -0.026000
      4 C04         23.2430   -35.2880    -2.4370 ca         1 UNQ       0.059100
      5 C05         23.9780   -37.4940    -1.8370 ca         1 UNQ      -0.102000
      6 C06         23.8830   -36.4720    -2.8070 ca         1 UNQ      -0.114000
      7 O07         23.0330   -34.1740    -3.1910 os         1 UNQ      -0.155200
      8 C08         22.1360   -33.7730    -1.1450 cc         1 UNQ      -0.276200
      9 C09         22.3630   -33.2500    -2.4170 cd         1 UNQ       0.017900
     10 C10         21.9660   -31.8960    -2.9360 c          1 UNQ       0.727200
     11 O11         21.3720   -31.1310    -2.1860 o          1 UNQ      -0.691000
     12 O12         22.2490   -31.6000    -4.0910 o          1 UNQ      -0.691000
     13 C13         23.5430   -38.4360     0.5120 cp         1 UNQ       0.449500
     14 C14         23.4180   -39.0560     2.7290 ca         1 UNQ       0.578900
     15 N15         23.3160   -38.0810     1.8060 nb         1 UNQ      -0.736000
     16 C16         23.7360   -40.4060     2.3790 ca         1 UNQ       0.193900
     17 C17         23.8590   -39.8000     0.1730 ca         1 UNQ       0.207900
     18 N18         23.9590   -40.7990     1.0940 nb         1 UNQ      -0.607000
     19 N19         23.1810   -38.6510     4.0420 nu         1 UNQ      -0.937100
     20 C20         23.1180   -37.2590     4.5250 c6         1 UNQ       0.236500
     21 C21         22.3940   -37.2300     5.8960 c6         1 UNQ      -0.087400
     22 C22         22.3580   -35.7950     6.4830 c6         1 UNQ      -0.087900
     23 C23         23.7870   -35.2070     6.6070 c6         1 UNQ       0.151500
     24 C24         24.5190   -35.2360     5.2410 c6         1 UNQ      -0.087900
     25 C25         24.5500   -36.6710     4.6550 c6         1 UNQ      -0.087400
     26 N26         23.7320   -33.8300     7.1320 n8         1 UNQ      -0.996200
     27 H03         22.3670   -35.9110     0.7810 ha         1 UNQ       0.124000
     28 H05         24.4880   -38.4110    -2.1180 ha         1 UNQ       0.098000
     29 H06         24.2960   -36.5970    -3.8040 ha         1 UNQ       0.122000
     30 H08         21.6300   -33.2730    -0.3220 ha         1 UNQ       0.215000
     31 H16         23.8100   -41.1800     3.1420 h4         1 UNQ       0.013100
     32 H17         24.0210   -40.1000    -0.8600 h4         1 UNQ       0.029100
     33 HN19        23.2450   -39.3950     4.7350 hn         1 UNQ       0.479000
     34 H20         22.5360   -36.6320     3.8290 h1         1 UNQ       0.086700
     35 H21         21.3680   -37.6070     5.7860 hc         1 UNQ       0.045450
     36 H21A        22.9010   -37.9000     6.6050 hc         1 UNQ       0.045450
     37 H22         21.7390   -35.1520     5.8410 hc         1 UNQ       0.047700
     38 H22A        21.8730   -35.8140     7.4690 hc         1 UNQ       0.047700
     39 H23         24.3580   -35.8140     7.3280 h1         1 UNQ       0.052700
     40 H24         24.0190   -34.5630     4.5290 hc         1 UNQ       0.047700
     41 H24A        25.5470   -34.8660     5.3540 hc         1 UNQ       0.047700
     42 H25         25.1630   -37.3170     5.2990 hc         1 UNQ       0.045450
     43 H25A        25.0400   -36.6540     3.6720 hc         1 UNQ       0.045450
     44 HN26        24.6850   -33.4490     7.1570 hn         1 UNQ       0.392500
     45 HN2A        23.2550   -33.2360     6.4450 hn         1 UNQ       0.392500
@<TRIPOS>BOND
     1     1     3 ar  
     2     1     5 ar  
     3     1    13 1   
     4     2     3 ar  
     5     2     4 ar  
     6     2     8 1   
     7     3    27 1   
     8     4     6 ar  
     9     4     7 1   
    10     5     6 ar  
    11     5    28 1   
    12     6    29 1   
    13     7     9 1   
    14     8     9 2   
    15     8    30 1   
    16     9    10 1   
    17    10    11 1   
    18    10    12 1   
    19    13    15 ar  
    20    13    17 ar  
    21    14    15 ar  
    22    14    16 ar  
    23    14    19 1   
    24    16    18 ar  
    25    16    31 1   
    26    17    18 ar  
    27    17    32 1   
    28    19    20 1   
    29    19    33 1   
    30    20    21 1   
    31    20    25 1   
    32    20    34 1   
    33    21    22 1   
    34    21    35 1   
    35    21    36 1   
    36    22    23 1   
    37    22    37 1   
    38    22    38 1   
    39    23    24 1   
    40    23    26 1   
    41    23    39 1   
    42    24    25 1   
    43    24    40 1   
    44    24    41 1   
    45    25    42 1   
    46    25    43 1   
    47    26    44 1   
    48    26    45 1   
@<TRIPOS>SUBSTRUCTURE
     1 UNQ         1 TEMP              0 ****  ****    0 ROOT
