@<TRIPOS>MOLECULE
UNS
   53    56     1     0     0
SMALL
No Charge or Current Charge


@<TRIPOS>ATOM
      1 CAH        517.3070   -31.5310   143.8810 ca         1 UNS      -0.051300
      2 CAI        516.5240   -32.4960   144.5620 ca         1 UNS      -0.052000
      3 CAJ        517.1230   -33.7000   145.0220 ca         1 UNS      -0.020000
      4 CAK        518.5040   -33.9460   144.7850 ca         1 UNS      -0.095300
      5 CAL        519.2640   -32.9830   144.0820 ca         1 UNS       0.147100
      6 CAM        518.6700   -31.7810   143.6600 ca         1 UNS      -0.151000
      7 CAY        515.1460   -32.2750   144.7930 ca         1 UNS      -0.095000
      8 CAZ        514.3690   -33.2270   145.4680 ca         1 UNS      -0.088000
      9 CBA        514.9540   -34.4160   145.9270 ca         1 UNS      -0.007000
     10 CBB        516.3220   -34.6490   145.7060 ca         1 UNS      -0.065000
     11 CBC        514.1570   -35.3920   146.6190 cg         1 UNS       0.318000
     12 NBD        513.5180   -36.1910   147.1820 n1         1 UNS      -0.443000
     13 C0P        517.1850   -35.1710   141.7880 cc         1 UNS       0.016600
     14 C00        521.7300   -32.0660   140.4870 ca         1 UNS      -0.237000
     15 C0D        519.1690   -33.2240   139.8060 c3         1 UNS       0.137600
     16 C0E        517.7110   -33.7320   139.8170 c3         1 UNS       0.109000
     17 C0K        517.6470   -36.2160   139.6290 c          1 UNS       0.617000
     18 C0N        517.0810   -37.6380   141.5380 c          1 UNS       0.590200
     19 C0O        516.9610   -36.4140   142.3310 cd         1 UNS      -0.382200
     20 N0H        517.5290   -35.0680   140.4410 n          1 UNS      -0.306000
     21 N0M        517.4200   -37.4100   140.2430 ns         1 UNS      -0.466500
     22 O0A        520.6050   -33.2190   143.8480 os         1 UNS      -0.236200
     23 O0S        516.8960   -38.7580   141.9780 o          1 UNS      -0.524000
     24 C01        522.9690   -31.5130   140.8390 ca         1 UNS       0.209000
     25 C02        523.4040   -31.5260   142.1700 ca         1 UNS      -0.176000
     26 C03        522.5910   -32.0950   143.1640 ca         1 UNS      -0.054000
     27 C04        521.3390   -32.6410   142.8300 ca         1 UNS       0.050100
     28 C05        520.8990   -32.6380   141.4780 ca         1 UNS       0.149100
     29 C31        519.1700   -35.2420   145.2720 c3         1 UNS      -0.043800
     30 C32        516.7190   -30.2160   143.3730 c3         1 UNS      -0.051800
     31 H1         519.2720   -31.0360   143.1480 ha         1 UNS       0.125000
     32 H2         514.6560   -31.3660   144.4550 ha         1 UNS       0.119000
     33 H3         513.3100   -33.0360   145.6330 ha         1 UNS       0.129000
     34 H4         516.7470   -35.5790   146.0740 ha         1 UNS       0.133000
     35 H5         517.1190   -34.2150   142.3000 h4         1 UNS       0.213000
     36 H6         521.4390   -32.0410   139.4420 ha         1 UNS       0.140000
     37 H7         519.7830   -33.8850   139.1820 h1         1 UNS       0.061200
     38 H8         519.1760   -32.2200   139.3630 h1         1 UNS       0.061200
     39 H9         517.0950   -33.0010   140.3560 h1         1 UNS       0.074200
     40 H10        517.3360   -33.7540   138.7860 h1         1 UNS       0.074200
     41 H11        516.6820   -36.5570   143.3670 ha         1 UNS       0.225000
     42 H12        517.5100   -38.2260   139.6600 hn         1 UNS       0.342500
     43 H13        524.3700   -31.0990   142.4290 ha         1 UNS       0.142000
     44 H14        522.9300   -32.1150   144.1980 ha         1 UNS       0.138000
     45 H15        519.0870   -35.3390   146.3610 hc         1 UNS       0.051700
     46 H16        518.7010   -36.1220   144.8170 hc         1 UNS       0.051700
     47 H17        520.2370   -35.3010   145.0350 hc         1 UNS       0.051700
     48 H18        515.9190   -30.3970   142.6450 hc         1 UNS       0.047367
     49 H19        516.3040   -29.6240   144.1970 hc         1 UNS       0.047367
     50 H20        517.4730   -29.5940   142.8750 hc         1 UNS       0.047367
     51 F33        523.7530   -30.9690   139.8840 f          1 UNS      -0.172000
     52 O0B        519.6700   -33.1900   141.1570 os         1 UNS      -0.335100
     53 O0Q        517.9390   -36.1730   138.4450 o          1 UNS      -0.564000
@<TRIPOS>BOND
     1     1     2 ar  
     2     1     6 ar  
     3     1    30 1   
     4     2     3 ar  
     5     2     7 ar  
     6     3     4 ar  
     7     3    10 ar  
     8     4     5 ar  
     9     4    29 1   
    10     5     6 ar  
    11     5    22 1   
    12     6    31 1   
    13     7     8 ar  
    14     7    32 1   
    15     8     9 ar  
    16     8    33 1   
    17     9    10 ar  
    18     9    11 1   
    19    10    34 1   
    20    11    12 3   
    21    13    19 2   
    22    13    20 1   
    23    13    35 1   
    24    14    24 ar  
    25    14    28 ar  
    26    14    36 1   
    27    15    16 1   
    28    15    37 1   
    29    15    38 1   
    30    15    52 1   
    31    16    20 1   
    32    16    39 1   
    33    16    40 1   
    34    17    20 1   
    35    17    21 1   
    36    17    53 2   
    37    18    19 1   
    38    18    21 1   
    39    18    23 2   
    40    19    41 1   
    41    21    42 1   
    42    22    27 1   
    43    24    25 ar  
    44    24    51 1   
    45    25    26 ar  
    46    25    43 1   
    47    26    27 ar  
    48    26    44 1   
    49    27    28 ar  
    50    28    52 1   
    51    29    45 1   
    52    29    46 1   
    53    29    47 1   
    54    30    48 1   
    55    30    49 1   
    56    30    50 1   
@<TRIPOS>SUBSTRUCTURE
     1 UNS         1 TEMP              0 ****  ****    0 ROOT
