@<TRIPOS>MOLECULE
UNS
   53    56     1     0     0
SMALL
abcg2


@<TRIPOS>ATOM
      1 CAH        517.3510   -31.5970   143.8130 ca         1 UNS      -0.051300
      2 CAI        516.5630   -32.5270   144.5470 ca         1 UNS      -0.052000
      3 CAJ        517.1560   -33.7390   144.9960 ca         1 UNS      -0.020000
      4 CAK        518.5120   -34.0520   144.6960 ca         1 UNS      -0.095300
      5 CAL        519.2240   -33.1330   143.9630 ca         1 UNS       0.147100
      6 CAM        518.6540   -31.9130   143.5440 ca         1 UNS      -0.151000
      7 CAY        515.2040   -32.2700   144.8420 ca         1 UNS      -0.095000
      8 CAZ        514.4450   -33.1570   145.5480 ca         1 UNS      -0.088000
      9 CBA        515.0370   -34.3590   145.9940 ca         1 UNS      -0.007000
     10 CBB        516.3560   -34.6430   145.7280 ca         1 UNS      -0.065000
     11 CBC        514.2550   -35.2960   146.7340 cg         1 UNS       0.318000
     12 NBD        513.6190   -36.0490   147.3320 n1         1 UNS      -0.443000
     13 C0P        517.0660   -35.0950   141.7110 cc         1 UNS       0.016600
     14 C00        521.6930   -32.1020   140.4800 ca         1 UNS      -0.237000
     15 C0D        519.2220   -33.2900   139.7860 c3         1 UNS       0.137600
     16 C0E        517.7650   -33.6930   139.8310 c3         1 UNS       0.109000
     17 C0K        517.8240   -36.1260   139.6970 c          1 UNS       0.617000
     18 C0N        517.1110   -37.4990   141.6320 c          1 UNS       0.590200
     19 C0O        516.8350   -36.2670   142.3260 cd         1 UNS      -0.382200
     20 N0H        517.5400   -34.9980   140.4370 n          1 UNS      -0.306000
     21 N0M        517.5940   -37.3100   140.3450 ns         1 UNS      -0.466500
     22 O0A        520.5210   -33.4390   143.6820 os         1 UNS      -0.236200
     23 O0S        516.9550   -38.6220   142.0750 o          1 UNS      -0.524000
     24 C01        522.8430   -31.4740   140.9270 ca         1 UNS       0.209000
     25 C02        523.2160   -31.4480   142.2510 ca         1 UNS      -0.176000
     26 C03        522.3920   -32.0890   143.1690 ca         1 UNS      -0.054000
     27 C04        521.2420   -32.7330   142.7600 ca         1 UNS       0.050100
     28 C05        520.8760   -32.7430   141.4050 ca         1 UNS       0.149100
     29 C31        519.1140   -35.3470   145.1560 c3         1 UNS      -0.043800
     30 C32        516.7750   -30.2980   143.3370 c3         1 UNS      -0.051800
     31 H1         519.2590   -31.1980   143.0000 ha         1 UNS       0.125000
     32 H2         514.7500   -31.3500   144.5000 ha         1 UNS       0.119000
     33 H3         513.4070   -32.9500   145.7650 ha         1 UNS       0.129000
     34 H4         516.7760   -35.5720   146.0880 ha         1 UNS       0.133000
     35 H5         516.8660   -34.1520   142.2000 h4         1 UNS       0.213000
     36 H6         521.4630   -32.0940   139.4230 ha         1 UNS       0.140000
     37 H7         519.7980   -33.9290   139.1120 h1         1 UNS       0.061200
     38 H8         519.2660   -32.2660   139.4050 h1         1 UNS       0.061200
     39 H9         517.1970   -32.9650   140.4070 h1         1 UNS       0.074200
     40 H10        517.3660   -33.6830   138.8180 h1         1 UNS       0.074200
     41 H11        516.4380   -36.2940   143.3290 ha         1 UNS       0.225000
     42 H12        517.8000   -38.1440   139.8080 hn         1 UNS       0.342500
     43 H13        524.1200   -30.9470   142.5680 ha         1 UNS       0.142000
     44 H14        522.6540   -32.0940   144.2190 ha         1 UNS       0.138000
     45 H15        519.0560   -35.4490   146.2400 hc         1 UNS       0.051700
     46 H16        518.5880   -36.2000   144.7210 hc         1 UNS       0.051700
     47 H17        520.1590   -35.4370   144.8770 hc         1 UNS       0.051700
     48 H18        515.9450   -30.4570   142.6460 hc         1 UNS       0.047367
     49 H19        516.3950   -29.6980   144.1650 hc         1 UNS       0.047367
     50 H20        517.5290   -29.7100   142.8170 hc         1 UNS       0.047367
     51 F33        523.6210   -30.8690   140.0160 f          1 UNS      -0.172000
     52 O0B        519.7340   -33.3730   141.1040 os         1 UNS      -0.335100
     53 O0Q        518.2420   -36.0740   138.5590 o          1 UNS      -0.564000
@<TRIPOS>BOND
     1     1     2 ar  
     2     1     6 ar  
     3     1    30 1   
     4     2     3 ar  
     5     2     7 ar  
     6     3     4 ar  
     7     3    10 ar  
     8     4     5 ar  
     9     4    29 1   
    10     5     6 ar  
    11     5    22 1   
    12     6    31 1   
    13     7     8 ar  
    14     7    32 1   
    15     8     9 ar  
    16     8    33 1   
    17     9    10 ar  
    18     9    11 1   
    19    10    34 1   
    20    11    12 3   
    21    13    19 2   
    22    13    20 1   
    23    13    35 1   
    24    14    24 ar  
    25    14    28 ar  
    26    14    36 1   
    27    15    16 1   
    28    15    37 1   
    29    15    38 1   
    30    15    52 1   
    31    16    20 1   
    32    16    39 1   
    33    16    40 1   
    34    17    20 1   
    35    17    21 1   
    36    17    53 2   
    37    18    19 1   
    38    18    21 1   
    39    18    23 2   
    40    19    41 1   
    41    21    42 1   
    42    22    27 1   
    43    24    25 ar  
    44    24    51 1   
    45    25    26 ar  
    46    25    43 1   
    47    26    27 ar  
    48    26    44 1   
    49    27    28 ar  
    50    28    52 1   
    51    29    45 1   
    52    29    46 1   
    53    29    47 1   
    54    30    48 1   
    55    30    49 1   
    56    30    50 1   
@<TRIPOS>SUBSTRUCTURE
     1 UNS         1 TEMP              0 ****  ****    0 ROOT
