@<TRIPOS>MOLECULE
UNT
   54    57     1     0     0
SMALL
No Charge or Current Charge


@<TRIPOS>ATOM
      1 O1           7.6890     0.7490     0.1070 o          1 UNT      -0.701500
      2 C2           6.7870     0.8930     0.9230 c          1 UNT       0.728000
      3 O3           6.9730     1.3500     2.0430 o          1 UNT      -0.701500
      4 C4           5.3740     0.3840     0.5840 c3         1 UNT      -0.052700
      5 N5           4.5090     1.5180     0.2330 na         1 UNT       0.321600
      6 N6           3.3970     1.8420     0.9870 nc         1 UNT      -0.504800
      7 C7           2.9230     2.8640     0.3100 cd         1 UNT       0.158400
      8 C8           3.7240     3.1380    -0.8140 cd         1 UNT       0.158400
      9 N9           4.7330     2.2990    -0.8860 nc         1 UNT      -0.504800
     10 C10          5.3510    -0.7480    -0.4810 c3         1 UNT      -0.034100
     11 C11          3.9550    -1.3260    -0.6860 ca         1 UNT      -0.057300
     12 C12          3.4300    -2.2520     0.2340 ca         1 UNT      -0.105000
     13 C13          2.1380    -2.7770     0.0550 ca         1 UNT      -0.111000
     14 C14          1.3580    -2.3810    -1.0480 ca         1 UNT      -0.104300
     15 C15          1.8820    -1.4530    -1.9670 ca         1 UNT      -0.111000
     16 C16          3.1740    -0.9290    -1.7870 ca         1 UNT      -0.105000
     17 C17         -0.0460    -2.9410    -1.2370 c3         1 UNT      -0.021100
     18 C18         -1.1150    -2.0540    -0.5660 c3         1 UNT      -0.073400
     19 C19         -2.5510    -2.6000    -0.7300 c3         1 UNT      -0.096700
     20 C20         -3.5850    -1.7360    -0.0580 cc         1 UNT       0.256300
     21 N21         -4.1730    -0.6840    -0.6980 nc         1 UNT      -0.671000
     22 C22         -5.0020    -0.1960     0.2190 cd         1 UNT       0.498500
     23 O23         -5.0100    -0.8480     1.4240 os         1 UNT      -0.264000
     24 C24         -4.0920    -1.8250     1.2110 cd         1 UNT       0.104300
     25 C25         -3.7850    -2.7920     2.3220 c3         1 UNT      -0.112400
     26 C26         -5.8950     0.9690     0.0430 ca         1 UNT      -0.127500
     27 C27         -6.7400     1.4010     1.0920 ca         1 UNT      -0.073000
     28 C28         -7.5860     2.5100     0.9190 ca         1 UNT      -0.121000
     29 C29         -7.6010     3.2020    -0.3030 ca         1 UNT      -0.097000
     30 C30         -6.7680     2.7840    -1.3520 ca         1 UNT      -0.121000
     31 C31         -5.9200     1.6750    -1.1810 ca         1 UNT      -0.073000
     32 H4           4.9840    -0.0440     1.5150 h1         1 UNT       0.064700
     33 H7           2.0260     3.3690     0.6440 h4         1 UNT       0.024100
     34 H8           3.6000     3.9080    -1.5640 h4         1 UNT       0.024100
     35 H10          5.7480    -0.3670    -1.4300 hc         1 UNT       0.071200
     36 H10A         6.0350    -1.5460    -0.1660 hc         1 UNT       0.071200
     37 H12          4.0210    -2.5640     1.0930 ha         1 UNT       0.117000
     38 H13          1.7430    -3.4890     0.7760 ha         1 UNT       0.097000
     39 H15          1.2870    -1.1340    -2.8190 ha         1 UNT       0.097000
     40 H16          3.5630    -0.2080    -2.5020 ha         1 UNT       0.117000
     41 H17         -0.2730    -3.0330    -2.3060 hc         1 UNT       0.034200
     42 H17A        -0.1060    -3.9550    -0.8230 hc         1 UNT       0.034200
     43 H18         -0.8850    -1.9630     0.5030 hc         1 UNT       0.057200
     44 H18A        -1.0630    -1.0440    -0.9900 hc         1 UNT       0.057200
     45 H19         -2.7830    -2.6880    -1.7990 hc         1 UNT       0.045700
     46 H19A        -2.6010    -3.6150    -0.3180 hc         1 UNT       0.045700
     47 H25         -4.2390    -2.4710     3.2670 hc         1 UNT       0.053700
     48 H25A        -4.1690    -3.7910     2.0860 hc         1 UNT       0.053700
     49 H25B        -2.7030    -2.8740     2.4810 hc         1 UNT       0.053700
     50 H27         -6.7460     0.8800     2.0480 ha         1 UNT       0.132000
     51 H28         -8.2320     2.8320     1.7330 ha         1 UNT       0.114000
     52 H29         -8.2570     4.0600    -0.4350 ha         1 UNT       0.111000
     53 H30         -6.7780     3.3190    -2.2990 ha         1 UNT       0.114000
     54 H31         -5.2810     1.3660    -2.0060 ha         1 UNT       0.132000
@<TRIPOS>BOND
     1     1     2 1   
     2     2     3 1   
     3     2     4 1   
     4     4     5 1   
     5     4    10 1   
     6     4    32 1   
     7     5     6 1   
     8     5     9 1   
     9     6     7 2   
    10     7     8 1   
    11     7    33 1   
    12     8     9 2   
    13     8    34 1   
    14    10    11 1   
    15    10    35 1   
    16    10    36 1   
    17    11    12 ar  
    18    11    16 ar  
    19    12    13 ar  
    20    12    37 1   
    21    13    14 ar  
    22    13    38 1   
    23    14    15 ar  
    24    14    17 1   
    25    15    16 ar  
    26    15    39 1   
    27    16    40 1   
    28    17    18 1   
    29    17    41 1   
    30    17    42 1   
    31    18    19 1   
    32    18    43 1   
    33    18    44 1   
    34    19    20 1   
    35    19    45 1   
    36    19    46 1   
    37    20    21 1   
    38    20    24 2   
    39    21    22 2   
    40    22    23 1   
    41    22    26 1   
    42    23    24 1   
    43    24    25 1   
    44    25    47 1   
    45    25    48 1   
    46    25    49 1   
    47    26    27 ar  
    48    26    31 ar  
    49    27    28 ar  
    50    27    50 1   
    51    28    29 ar  
    52    28    51 1   
    53    29    30 ar  
    54    29    52 1   
    55    30    31 ar  
    56    30    53 1   
    57    31    54 1   
@<TRIPOS>SUBSTRUCTURE
     1 UNT         1 TEMP              0 ****  ****    0 ROOT
