@<TRIPOS>MOLECULE
UNT
   54    57     1     0     0
SMALL
abcg2


@<TRIPOS>ATOM
      1 O1           7.5160     0.4900     0.8470 o          1 UNT      -0.701500
      2 C2           6.5570     1.2780     0.7670 c          1 UNT       0.728000
      3 O3           6.5610     2.5090     0.9010 o          1 UNT      -0.701500
      4 C4           5.1780     0.6010     0.5150 c3         1 UNT      -0.052700
      5 N5           4.1710     1.5740     0.1490 na         1 UNT       0.321600
      6 N6           3.1930     1.9130     0.9490 nc         1 UNT      -0.504800
      7 C7           2.5190     2.8340     0.2740 cd         1 UNT       0.158400
      8 C8           3.1510     3.0120    -0.9550 cd         1 UNT       0.158400
      9 N9           4.1970     2.1990    -0.9970 nc         1 UNT      -0.504800
     10 C10          5.2320    -0.5290    -0.5130 c3         1 UNT      -0.034100
     11 C11          3.8970    -1.1910    -0.7050 ca         1 UNT      -0.057300
     12 C12          3.4130    -2.0980     0.2370 ca         1 UNT      -0.105000
     13 C13          2.1700    -2.6930     0.0850 ca         1 UNT      -0.111000
     14 C14          1.3640    -2.4020    -1.0140 ca         1 UNT      -0.104300
     15 C15          1.8470    -1.4970    -1.9540 ca         1 UNT      -0.111000
     16 C16          3.0920    -0.9010    -1.8020 ca         1 UNT      -0.105000
     17 C17         -0.0020    -3.0120    -1.1540 c3         1 UNT      -0.021100
     18 C18         -1.0750    -2.1800    -0.4530 c3         1 UNT      -0.073400
     19 C19         -2.4620    -2.8120    -0.5700 c3         1 UNT      -0.096700
     20 C20         -3.5290    -1.9620     0.0250 cc         1 UNT       0.256300
     21 N21         -3.8700    -0.7430    -0.5260 nc         1 UNT      -0.671000
     22 C22         -4.7960    -0.2690     0.2370 cd         1 UNT       0.498500
     23 O23         -5.1010    -1.0790     1.2580 os         1 UNT      -0.264000
     24 C24         -4.2890    -2.1650     1.1270 cd         1 UNT       0.104300
     25 C25         -4.3970    -3.2430     2.1330 c3         1 UNT      -0.112400
     26 C26         -5.5060     0.9950     0.1020 ca         1 UNT      -0.127500
     27 C27         -6.5190     1.3620     0.9900 ca         1 UNT      -0.073000
     28 C28         -7.1720     2.5760     0.8350 ca         1 UNT      -0.121000
     29 C29         -6.8260     3.4330    -0.2020 ca         1 UNT      -0.097000
     30 C30         -5.8190     3.0690    -1.0880 ca         1 UNT      -0.121000
     31 C31         -5.1620     1.8590    -0.9400 ca         1 UNT      -0.073000
     32 H4           4.8380     0.1910     1.4700 h1         1 UNT       0.064700
     33 H7           1.6420     3.3090     0.6800 h4         1 UNT       0.024100
     34 H8           2.9040     3.6660    -1.7750 h4         1 UNT       0.024100
     35 H10          5.6050    -0.1460    -1.4650 hc         1 UNT       0.071200
     36 H10A         5.9630    -1.2540    -0.1560 hc         1 UNT       0.071200
     37 H12          4.0210    -2.3510     1.0990 ha         1 UNT       0.117000
     38 H13          1.8230    -3.3990     0.8310 ha         1 UNT       0.097000
     39 H15          1.2440    -1.2560    -2.8230 ha         1 UNT       0.097000
     40 H16          3.4450    -0.2060    -2.5540 ha         1 UNT       0.117000
     41 H17         -0.2580    -3.1100    -2.2130 hc         1 UNT       0.034200
     42 H17A         0.0000    -4.0240    -0.7390 hc         1 UNT       0.034200
     43 H18         -0.8170    -2.0620     0.6040 hc         1 UNT       0.057200
     44 H18A        -1.0940    -1.1750    -0.8820 hc         1 UNT       0.057200
     45 H19         -2.6920    -2.9880    -1.6250 hc         1 UNT       0.045700
     46 H19A        -2.4610    -3.7920    -0.0880 hc         1 UNT       0.045700
     47 H25         -4.1900    -2.8770     3.1400 hc         1 UNT       0.053700
     48 H25A        -5.3920    -3.6930     2.1410 hc         1 UNT       0.053700
     49 H25B        -3.6780    -4.0300     1.9110 hc         1 UNT       0.053700
     50 H27         -6.8060     0.7080     1.8020 ha         1 UNT       0.132000
     51 H28         -7.9550     2.8520     1.5290 ha         1 UNT       0.114000
     52 H29         -7.3370     4.3800    -0.3180 ha         1 UNT       0.111000
     53 H30         -5.5420     3.7320    -1.8970 ha         1 UNT       0.114000
     54 H31         -4.3780     1.5810    -1.6310 ha         1 UNT       0.132000
@<TRIPOS>BOND
     1     1     2 1   
     2     2     3 1   
     3     2     4 1   
     4     4     5 1   
     5     4    10 1   
     6     4    32 1   
     7     5     6 1   
     8     5     9 1   
     9     6     7 2   
    10     7     8 1   
    11     7    33 1   
    12     8     9 2   
    13     8    34 1   
    14    10    11 1   
    15    10    35 1   
    16    10    36 1   
    17    11    12 ar  
    18    11    16 ar  
    19    12    13 ar  
    20    12    37 1   
    21    13    14 ar  
    22    13    38 1   
    23    14    15 ar  
    24    14    17 1   
    25    15    16 ar  
    26    15    39 1   
    27    16    40 1   
    28    17    18 1   
    29    17    41 1   
    30    17    42 1   
    31    18    19 1   
    32    18    43 1   
    33    18    44 1   
    34    19    20 1   
    35    19    45 1   
    36    19    46 1   
    37    20    21 1   
    38    20    24 2   
    39    21    22 2   
    40    22    23 1   
    41    22    26 1   
    42    23    24 1   
    43    24    25 1   
    44    25    47 1   
    45    25    48 1   
    46    25    49 1   
    47    26    27 ar  
    48    26    31 ar  
    49    27    28 ar  
    50    27    50 1   
    51    28    29 ar  
    52    28    51 1   
    53    29    30 ar  
    54    29    52 1   
    55    30    31 ar  
    56    30    53 1   
    57    31    54 1   
@<TRIPOS>SUBSTRUCTURE
     1 UNT         1 TEMP              0 ****  ****    0 ROOT
