@<TRIPOS>MOLECULE
UNU
   16    16     1     0     0
SMALL
No Charge or Current Charge


@<TRIPOS>ATOM
      1 O08          2.3310    -1.1450    -0.0120 o          1 UNU      -0.603100
      2 C07          1.7200    -0.0890    -0.0110 c          1 UNU       0.615700
      3 N09          2.4180     1.0680     0.0050 nt         1 UNU      -0.604000
      4 C06          0.2070    -0.0170    -0.0290 ca         1 UNU      -0.153600
      5 C01         -0.5470    -1.2140    -0.0460 ca         1 UNU      -0.071500
      6 C05         -0.4860     1.2190    -0.0280 ca         1 UNU      -0.071500
      7 C04         -1.8920     1.2500    -0.0440 ca         1 UNU      -0.120500
      8 C03         -2.6260     0.0540    -0.0610 ca         1 UNU      -0.089000
      9 C02         -1.9520    -1.1770    -0.0620 ca         1 UNU      -0.120500
     10 H091         3.4260     1.0330     0.0160 hn         1 UNU       0.313000
     11 H092         1.9360     1.9530     0.0050 hn         1 UNU       0.313000
     12 H01         -0.0450    -2.1790    -0.0470 ha         1 UNU       0.122500
     13 H05          0.0500     2.1650    -0.0150 ha         1 UNU       0.122500
     14 H04         -2.4130     2.2050    -0.0430 ha         1 UNU       0.116500
     15 H03         -3.7140     0.0810    -0.0730 ha         1 UNU       0.115000
     16 H02         -2.5190    -2.1060    -0.0750 ha         1 UNU       0.116500
@<TRIPOS>BOND
     1     1     2 2   
     2     2     3 1   
     3     2     4 1   
     4     3    10 1   
     5     3    11 1   
     6     4     5 ar  
     7     4     6 ar  
     8     5     9 ar  
     9     5    12 1   
    10     6     7 ar  
    11     6    13 1   
    12     7     8 ar  
    13     7    14 1   
    14     8     9 ar  
    15     8    15 1   
    16     9    16 1   
@<TRIPOS>SUBSTRUCTURE
     1 UNU         1 TEMP              0 ****  ****    0 ROOT
