@<TRIPOS>MOLECULE
UNU
   16    16     1     0     0
SMALL
bcc


@<TRIPOS>ATOM
      1 O08          2.2320    -1.1010     0.5460 o          1 UNU      -0.603100
      2 C07          1.6850    -0.0760     0.1630 c          1 UNU       0.682700
      3 N09          2.3670     1.0270    -0.1810 nt         1 UNU      -0.671000
      4 C06          0.1940     0.0090     0.0600 ca         1 UNU      -0.153600
      5 C01         -0.5240    -1.1760    -0.0830 ca         1 UNU      -0.089500
      6 C05         -0.4950     1.2180     0.1390 ca         1 UNU      -0.089500
      7 C04         -1.8800     1.2410     0.0630 ca         1 UNU      -0.138500
      8 C03         -2.5880     0.0580    -0.0980 ca         1 UNU      -0.107000
      9 C02         -1.9070    -1.1510    -0.1720 ca         1 UNU      -0.138500
     10 H091         3.3730     1.0200    -0.1510 hn         1 UNU       0.313000
     11 H092         1.9320     1.8120    -0.6340 hn         1 UNU       0.313000
     12 H01          0.0010    -2.1200    -0.1350 ha         1 UNU       0.140500
     13 H05          0.0350     2.1510     0.2850 ha         1 UNU       0.140500
     14 H04         -2.4060     2.1840     0.1360 ha         1 UNU       0.134500
     15 H03         -3.6690     0.0770    -0.1590 ha         1 UNU       0.133000
     16 H02         -2.4560    -2.0750    -0.2980 ha         1 UNU       0.134500
@<TRIPOS>BOND
     1     1     2 2   
     2     2     3 1   
     3     2     4 1   
     4     3    10 1   
     5     3    11 1   
     6     4     5 ar  
     7     4     6 ar  
     8     5     9 ar  
     9     5    12 1   
    10     6     7 ar  
    11     6    13 1   
    12     7     8 ar  
    13     7    14 1   
    14     8     9 ar  
    15     8    15 1   
    16     9    16 1   
@<TRIPOS>SUBSTRUCTURE
     1 UNU         1 TEMP              0 ****  ****    0 ROOT
