@<TRIPOS>MOLECULE
UNV
   24    25     1     0     0
SMALL
No Charge or Current Charge


@<TRIPOS>ATOM
      1 N1          -3.0330    -0.4280    -1.4260 nb         1 UNV      -0.738000
      2 C2          -3.0690    -0.4150     1.4210 ca         1 UNV      -0.155000
      3 C3          -1.8640    -0.4350     0.7000 ca         1 UNV       0.002700
      4 C4          -4.2600    -0.3920     0.6720 ca         1 UNV      -0.237000
      5 C5          -4.1950    -0.3980    -0.7380 ca         1 UNV       0.266900
      6 C6          -1.8870    -0.4350    -0.6890 ca         1 UNV       0.447300
      7 C7          -0.4680    -0.4920     1.2740 c5         1 UNV       0.025900
      8 C10         -0.4900    -0.5110    -1.2650 c5         1 UNV      -0.067700
      9 C14          0.4280    -0.1640     0.0010 c5         1 UNV      -0.649000
     10 P17          1.9580    -1.1610     0.0280 p5         1 UNV       1.356000
     11 O18          1.5800     1.9940    -1.2360 o          1 UNV      -0.966167
     12 O19         -0.4770     2.3390     0.0000 o          1 UNV      -0.966167
     13 O20          1.5920     2.0010     1.2270 o          1 UNV      -0.966167
     14 O21          1.5100    -2.5850     0.0020 o          1 UNV      -0.966167
     15 O22          2.7870    -0.8930    -1.1810 o          1 UNV      -0.966167
     16 O23          2.7220    -0.9200     1.2860 o          1 UNV      -0.966167
     17 H2          -3.0810    -0.4200     2.5080 ha         1 UNV       0.060000
     18 H4          -5.2230    -0.3750     1.1740 ha         1 UNV       0.028000
     19 H5          -5.1030    -0.3870    -1.3370 h4         1 UNV      -0.075900
     20 H7          -0.3250     0.2140     2.1010 hc         1 UNV       0.041200
     21 H7A         -0.2730    -1.4900     1.6830 hc         1 UNV       0.041200
     22 H10         -0.3040    -1.5180    -1.6560 hc         1 UNV       0.046700
     23 H10A        -0.3460     0.1790    -2.1040 hc         1 UNV       0.046700
     24 P11          0.8330     1.6240     0.0000 p5         1 UNV       1.356000
@<TRIPOS>BOND
     1     1     5 ar  
     2     1     6 ar  
     3     2     3 ar  
     4     2     4 ar  
     5     2    17 1   
     6     3     6 ar  
     7     3     7 1   
     8     4     5 ar  
     9     4    18 1   
    10     5    19 1   
    11     6     8 1   
    12     7     9 1   
    13     7    20 1   
    14     7    21 1   
    15     8     9 1   
    16     8    22 1   
    17     8    23 1   
    18     9    10 1   
    19     9    24 1   
    20    10    14 1   
    21    10    15 1   
    22    10    16 1   
    23    11    24 1   
    24    12    24 1   
    25    13    24 1   
@<TRIPOS>SUBSTRUCTURE
     1 UNV         1 TEMP              0 ****  ****    0 ROOT
