@<TRIPOS>MOLECULE
UNV
   24    25     1     0     0
SMALL
abcg2


@<TRIPOS>ATOM
      1 N1          -2.9410    -0.3810    -1.3890 nb         1 UNV      -0.738000
      2 C2          -3.0370    -0.4080     1.4080 ca         1 UNV      -0.155000
      3 C3          -1.8320    -0.4400     0.7430 ca         1 UNV       0.002700
      4 C4          -4.2080    -0.3380     0.6460 ca         1 UNV      -0.237000
      5 C5          -4.1060    -0.3260    -0.7320 ca         1 UNV       0.266900
      6 C6          -1.8440    -0.4270    -0.6560 ca         1 UNV       0.447300
      7 C7          -0.4250    -0.5170     1.2450 c5         1 UNV       0.025900
      8 C10         -0.4490    -0.5260    -1.1880 c5         1 UNV      -0.067700
      9 C14          0.4510    -0.1710     0.0150 c5         1 UNV      -0.649000
     10 P17          1.9760    -1.2340     0.0010 p5         1 UNV       1.356000
     11 O18          1.4600     2.0460    -1.2730 o          1 UNV      -0.966167
     12 O19         -0.7690     2.2290    -0.0390 o          1 UNV      -0.966167
     13 O20          1.4080     2.0770     1.2920 o          1 UNV      -0.966167
     14 O21          1.4330    -2.6840     0.0270 o          1 UNV      -0.966167
     15 O22          2.7370    -0.9350    -1.2990 o          1 UNV      -0.966167
     16 O23          2.7770    -0.9040     1.2700 o          1 UNV      -0.966167
     17 H2          -3.0900    -0.4200     2.4910 ha         1 UNV       0.060000
     18 H4          -5.1810    -0.2940     1.1170 ha         1 UNV       0.028000
     19 H5          -5.0010    -0.2710    -1.3440 h4         1 UNV      -0.075900
     20 H7          -0.2410     0.1500     2.0890 hc         1 UNV       0.041200
     21 H7A         -0.2240    -1.5370     1.5960 hc         1 UNV       0.041200
     22 H10         -0.2760    -1.5580    -1.5190 hc         1 UNV       0.046700
     23 H10A        -0.2810     0.1170    -2.0530 hc         1 UNV       0.046700
     24 P11          0.6750     1.6840    -0.0020 p5         1 UNV       1.356000
@<TRIPOS>BOND
     1     1     5 ar  
     2     1     6 ar  
     3     2     3 ar  
     4     2     4 ar  
     5     2    17 1   
     6     3     6 ar  
     7     3     7 1   
     8     4     5 ar  
     9     4    18 1   
    10     5    19 1   
    11     6     8 1   
    12     7     9 1   
    13     7    20 1   
    14     7    21 1   
    15     8     9 1   
    16     8    22 1   
    17     8    23 1   
    18     9    10 1   
    19     9    24 1   
    20    10    14 1   
    21    10    15 1   
    22    10    16 1   
    23    11    24 1   
    24    12    24 1   
    25    13    24 1   
@<TRIPOS>SUBSTRUCTURE
     1 UNV         1 TEMP              0 ****  ****    0 ROOT
