@<TRIPOS>MOLECULE
UNW
   68    73     1     0     0
SMALL
abcg2


@<TRIPOS>ATOM
      1 C2           9.0500     6.4370    45.5950 ca         1 UNW      -0.062000
      2 C3          10.2710     5.9460    45.1530 ca         1 UNW       0.165900
      3 N4          11.0250     6.5880    44.2890 nb         1 UNW      -0.242000
      4 C5          10.5640     7.7730    43.8560 ca         1 UNW       0.391900
      5 C7          10.9920     9.6670    42.3230 c6         1 UNW       0.247500
      6 C8          12.2510    10.4250    41.9180 c6         1 UNW      -0.132400
      7 C11          9.8910    10.7190    40.3390 c6         1 UNW       0.157100
      8 C12         10.1290     9.4150    41.0860 c6         1 UNW      -0.132400
      9 C14          8.6340     7.6600    45.0750 cp         1 UNW       0.236500
     10 C15          7.3550     8.3030    45.4440 cp         1 UNW      -0.168500
     11 C16          7.3620     9.6330    45.8800 ca         1 UNW      -0.047000
     12 C19          3.5970    10.0050    46.4500 c5         1 UNW       0.142300
     13 C22          1.2810     8.0100    47.7230 c          1 UNW       0.579100
     14 C25         -0.2050     7.0810    49.3980 c3         1 UNW       0.095000
     15 C26         -0.5710     8.0590    50.5050 c3         1 UNW      -0.096400
     16 C27         -1.8830     8.8100    50.2670 c3         1 UNW      -0.034100
     17 C28         -1.8340     9.9020    49.2310 ca         1 UNW      -0.054300
     18 C31         -1.8590    11.9750    47.3420 ca         1 UNW      -0.112000
     19 C35          3.5960     7.8010    45.6400 c          1 UNW       0.588600
     20 C37          4.9890     8.2880    45.6660 ca         1 UNW      -0.162600
     21 C38          6.1500     7.6180    45.3300 ca         1 UNW      -0.005000
     22 CL1          8.1570     5.5560    46.7790 cl         1 UNW      -0.163000
     23 N6          11.3560     8.4470    43.0080 nu         1 UNW      -0.914100
     24 C9          11.8830    11.6630    41.1130 c6         1 UNW       0.157100
     25 O10         11.1010    11.3490    39.9830 os         1 UNW      -0.448000
     26 N13          9.4010     8.3190    44.2170 nb         1 UNW      -0.250000
     27 C17          6.1910    10.2860    46.2400 ca         1 UNW      -0.110000
     28 C18          4.9990     9.5910    46.1330 ca         1 UNW      -0.063300
     29 N20          2.8300     8.8480    46.0390 n          1 UNW      -0.399800
     30 O23          2.2660     7.7240    48.3850 o          1 UNW      -0.591100
     31 N24          0.0220     7.7210    48.1130 n          1 UNW      -0.399800
     32 C29         -2.1360    11.2100    49.5990 ca         1 UNW      -0.110000
     33 C30         -2.1470    12.2430    48.6700 ca         1 UNW      -0.100000
     34 C32         -1.5480    10.6750    46.9620 ca         1 UNW      -0.106000
     35 C33         -1.5230     9.6400    47.8900 ca         1 UNW      -0.115300
     36 C34         -1.1590     8.2460    47.4440 c3         1 UNW       0.146300
     37 O36          3.1930     6.6970    45.3210 o          1 UNW      -0.533000
     38 H39         10.6420     4.9950    45.5230 h4         1 UNW       0.035100
     39 H41         10.4240    10.2870    43.0220 h1         1 UNW       0.078700
     40 H42         12.8980     9.7770    41.3180 hc         1 UNW       0.058700
     41 H43         12.8200    10.7250    42.8020 hc         1 UNW       0.058700
     42 H46          9.2790    11.3900    40.9610 h1         1 UNW       0.047700
     43 H47          9.3400    10.5370    39.4150 h1         1 UNW       0.047700
     44 H49          9.1700     8.9790    41.3720 hc         1 UNW       0.058700
     45 H48         10.6330     8.6970    40.4310 hc         1 UNW       0.058700
     46 H50          8.3050    10.1590    45.9520 ha         1 UNW       0.125000
     47 H53          3.4700    10.2110    47.5170 h1         1 UNW       0.065700
     48 H52          3.2920    10.9000    45.9010 h1         1 UNW       0.065700
     49 H54          0.9720     9.6760    46.3650 h1         1 UNW       0.076200
     50 H55          0.9540     8.1080    45.5830 h1         1 UNW       0.076200
     51 H56          0.6850     6.5200    49.6720 h1         1 UNW       0.061200
     52 H58         -0.6670     7.4840    51.4290 hc         1 UNW       0.054700
     53 H59          0.2460     8.7690    50.6610 hc         1 UNW       0.054700
     54 H61         -2.2060     9.2490    51.2130 hc         1 UNW       0.047200
     55 H60         -2.6580     8.0830    49.9960 hc         1 UNW       0.047200
     56 H64         -1.8700    12.7680    46.6060 ha         1 UNW       0.115000
     57 H68          6.1140     6.5980    44.9680 ha         1 UNW       0.143000
     58 H40         12.1750     7.9530    42.6870 hn         1 UNW       0.505000
     59 H45         12.7830    12.1620    40.7510 h1         1 UNW       0.047700
     60 H44         11.3510    12.3760    41.7610 h1         1 UNW       0.047700
     61 H51          6.2210    11.3080    46.5930 ha         1 UNW       0.122000
     62 H62         -2.3750    11.4240    50.6350 ha         1 UNW       0.113000
     63 H63         -2.3850    13.2510    48.9860 ha         1 UNW       0.115000
     64 H65         -1.3230    10.4630    45.9230 ha         1 UNW       0.109000
     65 H67         -1.9780     7.5540    47.6550 h1         1 UNW       0.058700
     66 H66         -1.0260     8.2220    46.3620 h1         1 UNW       0.058700
     67 C21          1.4480     8.6930    46.3620 c3         1 UNW       0.030000
     68 H57         -1.0150     6.3590    49.2660 h1         1 UNW       0.061200
@<TRIPOS>BOND
     1     1     2 ar  
     2     1     9 ar  
     3     1    22 1   
     4     2     3 ar  
     5     2    38 1   
     6     3     4 ar  
     7     4    23 1   
     8     4    26 ar  
     9     5     6 1   
    10     5     8 1   
    11     5    23 1   
    12     5    39 1   
    13     6    24 1   
    14     6    40 1   
    15     6    41 1   
    16     7     8 1   
    17     7    25 1   
    18     7    42 1   
    19     7    43 1   
    20     8    44 1   
    21     8    45 1   
    22     9    10 1   
    23     9    26 ar  
    24    10    11 ar  
    25    10    21 ar  
    26    11    27 ar  
    27    11    46 1   
    28    12    28 1   
    29    12    29 1   
    30    12    47 1   
    31    12    48 1   
    32    13    30 2   
    33    13    31 1   
    34    13    67 1   
    35    14    15 1   
    36    14    31 1   
    37    14    51 1   
    38    14    68 1   
    39    15    16 1   
    40    15    52 1   
    41    15    53 1   
    42    16    17 1   
    43    16    54 1   
    44    16    55 1   
    45    17    32 ar  
    46    17    35 ar  
    47    18    33 ar  
    48    18    34 ar  
    49    18    56 1   
    50    19    20 1   
    51    19    29 1   
    52    19    37 2   
    53    20    21 ar  
    54    20    28 ar  
    55    21    57 1   
    56    23    58 1   
    57    24    25 1   
    58    24    59 1   
    59    24    60 1   
    60    27    28 ar  
    61    27    61 1   
    62    29    67 1   
    63    31    36 1   
    64    32    33 ar  
    65    32    62 1   
    66    33    63 1   
    67    34    35 ar  
    68    34    64 1   
    69    35    36 1   
    70    36    65 1   
    71    36    66 1   
    72    49    67 1   
    73    50    67 1   
@<TRIPOS>SUBSTRUCTURE
     1 UNW         1 TEMP              0 ****  ****    0 ROOT
