@<TRIPOS>MOLECULE
UNW
   68    73     1     0     0
SMALL
No Charge or Current Charge


@<TRIPOS>ATOM
      1 C2           9.2260     6.2530    45.3240 ca         1 UNW      -0.062000
      2 C3          10.4380     5.7810    44.7890 ca         1 UNW       0.165900
      3 N4          11.1770     6.5220    43.9410 nb         1 UNW      -0.242000
      4 C5          10.6980     7.7390    43.6400 ca         1 UNW       0.391900
      5 C7          11.1450     9.7980    42.2040 c6         1 UNW       0.247500
      6 C8          12.4350    10.4850    41.6980 c6         1 UNW      -0.132400
      7 C11          9.8930    10.9880    40.3470 c6         1 UNW       0.157100
      8 C12         10.1370     9.6290    41.0420 c6         1 UNW      -0.132400
      9 C14          8.7960     7.5530    44.9320 cp         1 UNW       0.236500
     10 C15          7.5300     8.1980    45.4050 cp         1 UNW      -0.168500
     11 C16          7.5230     9.5640    45.8210 ca         1 UNW      -0.047000
     12 C19          3.7610     9.9340    46.6960 c5         1 UNW       0.142300
     13 C22          1.1680     7.8800    48.0750 c          1 UNW       0.579100
     14 C25         -0.6040     7.0960    49.6890 c3         1 UNW       0.095000
     15 C26         -1.0840     8.1740    50.6850 c3         1 UNW      -0.096400
     16 C27         -2.3550     8.9400    50.2430 c3         1 UNW      -0.034100
     17 C28         -2.1200     9.9830    49.1440 ca         1 UNW      -0.054300
     18 C31         -1.7680    11.9570    47.1540 ca         1 UNW      -0.112000
     19 C35          3.7660     7.6250    45.9630 c          1 UNW       0.588600
     20 C37          5.1400     8.1430    45.8570 ca         1 UNW      -0.162600
     21 C38          6.2980     7.4870    45.4190 ca         1 UNW      -0.005000
     22 Cl1          8.3530     5.2440    46.4800 cl         1 UNW      -0.163000
     23 N6          11.4870     8.4870    42.7770 nu         1 UNW      -0.914100
     24 C9          12.0850    11.8060    40.9760 c6         1 UNW       0.157100
     25 O10         11.1510    11.5440    39.9070 os         1 UNW      -0.448000
     26 N13          9.5600     8.2890    44.1000 nb         1 UNW      -0.250000
     27 C17          6.3400    10.1960    46.2570 ca         1 UNW      -0.110000
     28 C18          5.1460     9.4610    46.2720 ca         1 UNW      -0.063300
     29 N20          2.9800     8.6830    46.4420 n          1 UNW      -0.399800
     30 O23          2.0450     7.5660    48.8750 o          1 UNW      -0.591100
     31 N24         -0.1990     7.6590    48.3830 n          1 UNW      -0.399800
     32 C29         -2.4140    11.3360    49.4120 ca         1 UNW      -0.110000
     33 C30         -2.2370    12.3190    48.4250 ca         1 UNW      -0.100000
     34 C32         -1.4730    10.6140    46.8720 ca         1 UNW      -0.106000
     35 C33         -1.6400     9.6220    47.8600 ca         1 UNW      -0.115300
     36 C34         -1.2940     8.1750    47.5330 c3         1 UNW       0.146300
     37 O36          3.3770     6.4990    45.6830 o          1 UNW      -0.533000
     38 H39         10.8290     4.7990    45.0510 h4         1 UNW       0.035100
     39 H41         10.6990    10.4500    42.9730 h1         1 UNW       0.078700
     40 H42         12.9740     9.8260    41.0040 hc         1 UNW       0.058700
     41 H43         13.1110    10.6890    42.5380 hc         1 UNW       0.058700
     42 H46          9.4050    11.6900    41.0390 h1         1 UNW       0.047700
     43 H47          9.2360    10.8530    39.4760 h1         1 UNW       0.047700
     44 H49          9.1850     9.2290    41.4140 hc         1 UNW       0.058700
     45 H48         10.5200     8.9070    40.3070 hc         1 UNW       0.058700
     46 H50          8.4490    10.1350    45.8120 ha         1 UNW       0.125000
     47 H53          3.7370    10.2250    47.7540 h1         1 UNW       0.065700
     48 H52          3.4090    10.7700    46.0770 h1         1 UNW       0.065700
     49 H54          1.0480     9.4980    46.6600 h1         1 UNW       0.076200
     50 H55          1.0910     7.8880    45.9190 h1         1 UNW       0.076200
     51 H56          0.2290     6.5390    50.1380 h1         1 UNW       0.061200
     52 H58         -1.2940     7.6780    51.6410 hc         1 UNW       0.054700
     53 H59         -0.2730     8.8870    50.8740 hc         1 UNW       0.054700
     54 H61         -2.7760     9.4280    51.1310 hc         1 UNW       0.047200
     55 H60         -3.1170     8.2210    49.9190 hc         1 UNW       0.047200
     56 H64         -1.6340    12.7160    46.3860 ha         1 UNW       0.115000
     57 H68          6.2420     6.4550    45.0800 ha         1 UNW       0.143000
     58 H40         12.3370     8.0230    42.4560 hn         1 UNW       0.505000
     59 H45         12.9940    12.2580    40.5550 h1         1 UNW       0.047700
     60 H44         11.6400    12.5240    41.6810 h1         1 UNW       0.047700
     61 H51          6.3540    11.2360    46.5760 ha         1 UNW       0.122000
     62 H62         -2.7860    11.6320    50.3910 ha         1 UNW       0.113000
     63 H63         -2.4670    13.3590    48.6440 ha         1 UNW       0.115000
     64 H65         -1.1130    10.3460    45.8810 ha         1 UNW       0.109000
     65 H67         -2.1880     7.5570    47.6890 h1         1 UNW       0.058700
     66 H66         -1.0360     8.0730    46.4720 h1         1 UNW       0.058700
     67 C21          1.5280     8.5140    46.7060 c3         1 UNW       0.030000
     68 H57         -1.4130     6.3720    49.5270 h1         1 UNW       0.061200
@<TRIPOS>BOND
     1     1     2 ar  
     2     1     9 ar  
     3     1    22 1   
     4     2     3 ar  
     5     2    38 1   
     6     3     4 ar  
     7     4    23 1   
     8     4    26 ar  
     9     5     6 1   
    10     5     8 1   
    11     5    23 1   
    12     5    39 1   
    13     6    24 1   
    14     6    40 1   
    15     6    41 1   
    16     7     8 1   
    17     7    25 1   
    18     7    42 1   
    19     7    43 1   
    20     8    44 1   
    21     8    45 1   
    22     9    10 1   
    23     9    26 ar  
    24    10    11 ar  
    25    10    21 ar  
    26    11    27 ar  
    27    11    46 1   
    28    12    28 1   
    29    12    29 1   
    30    12    47 1   
    31    12    48 1   
    32    13    30 2   
    33    13    31 1   
    34    13    67 1   
    35    14    15 1   
    36    14    31 1   
    37    14    51 1   
    38    14    68 1   
    39    15    16 1   
    40    15    52 1   
    41    15    53 1   
    42    16    17 1   
    43    16    54 1   
    44    16    55 1   
    45    17    32 ar  
    46    17    35 ar  
    47    18    33 ar  
    48    18    34 ar  
    49    18    56 1   
    50    19    20 1   
    51    19    29 1   
    52    19    37 2   
    53    20    21 ar  
    54    20    28 ar  
    55    21    57 1   
    56    23    58 1   
    57    24    25 1   
    58    24    59 1   
    59    24    60 1   
    60    27    28 ar  
    61    27    61 1   
    62    29    67 1   
    63    31    36 1   
    64    32    33 ar  
    65    32    62 1   
    66    33    63 1   
    67    34    35 ar  
    68    34    64 1   
    69    35    36 1   
    70    36    65 1   
    71    36    66 1   
    72    49    67 1   
    73    50    67 1   
@<TRIPOS>SUBSTRUCTURE
     1 UNW         1 TEMP              0 ****  ****    0 ROOT
