@<TRIPOS>MOLECULE
UNY
   54    56     1     0     0
SMALL
abcg2


@<TRIPOS>ATOM
      1 O2           4.8430    -1.6080     1.6460 o          1 UNY      -0.579100
      2 C1           5.1330    -1.6200     0.4640 c          1 UNY       0.623100
      3 N            5.8690    -2.5800    -0.1060 ns         1 UNY      -0.362400
      4 O3           6.2110    -3.6790     0.6170 oh         1 UNY      -0.418100
      5 C            4.6620    -0.5000    -0.4760 c3         1 UNY      -0.308000
      6 C19          5.0580    -0.6680    -1.9410 c3         1 UNY      -0.092100
      7 S            5.5680     0.9990     0.1150 s6         1 UNY       1.057000
      8 C20          4.7760     1.5670     1.6030 c3         1 UNY      -0.315100
      9 O            6.9250     0.5600     0.4410 o          1 UNY      -0.516000
     10 O1           5.4210     2.0480    -0.8960 o          1 UNY      -0.516000
     11 C2           3.1430    -0.3690    -0.3020 c3         1 UNY      -0.084400
     12 C3           2.4510     0.7120    -1.1370 c3         1 UNY       0.106000
     13 N1           1.0560     0.8040    -0.7910 n          1 UNY      -0.420800
     14 C4           0.5980     1.5810     0.2200 c          1 UNY       0.581600
     15 O4           1.2700     2.3260     0.9170 o          1 UNY      -0.549000
     16 C5          -0.8550     1.3360     0.2950 ca         1 UNY      -0.159600
     17 C6          -1.8030     1.8850     1.1410 ca         1 UNY      -0.036000
     18 C7          -3.1150     1.4610     1.0130 ca         1 UNY      -0.102000
     19 C11          0.0320    -0.0120    -1.4100 c5         1 UNY       0.146300
     20 C10         -1.1970     0.3930    -0.6580 ca         1 UNY      -0.086300
     21 C9          -2.5040    -0.0360    -0.7890 ca         1 UNY      -0.092000
     22 C8          -3.4780     0.5000     0.0570 cp         1 UNY       0.006000
     23 C12         -4.8800     0.0680    -0.0940 cp         1 UNY      -0.129000
     24 C13         -5.6760    -0.3050     0.9780 ca         1 UNY       0.227000
     25 F           -5.1540    -0.2900     2.2150 f          1 UNY      -0.174000
     26 C18         -5.4810    -0.0130    -1.3550 ca         1 UNY      -0.039000
     27 C17         -6.7860    -0.4240    -1.5250 ca         1 UNY      -0.165000
     28 C15         -7.5560    -0.7800    -0.4130 ca         1 UNY       0.179100
     29 C14         -6.9880    -0.7230     0.8560 ca         1 UNY      -0.250000
     30 O5          -8.8180    -1.1610    -0.6530 os         1 UNY      -0.335100
     31 C16         -9.6430    -1.5130     0.4420 c3         1 UNY       0.145900
     32 H1           6.0340    -2.6580    -1.0970 hn         1 UNY       0.348500
     33 H2           7.0880    -3.5010     0.9820 ho         1 UNY       0.453000
     34 H3           4.5700    -1.5530    -2.3510 hc         1 UNY       0.059700
     35 H4           4.7290     0.1800    -2.5350 hc         1 UNY       0.059700
     36 H5           6.1340    -0.7620    -2.0820 hc         1 UNY       0.059700
     37 H6           4.7950     0.7860     2.3560 h1         1 UNY       0.120033
     38 H7           5.3610     2.4250     1.9310 h1         1 UNY       0.120033
     39 H8           3.7550     1.8790     1.3940 h1         1 UNY       0.120033
     40 H9           2.7190    -1.3410    -0.5740 hc         1 UNY       0.069200
     41 H10          2.9010    -0.2190     0.7500 hc         1 UNY       0.069200
     42 H11          2.9020     1.6920    -0.9860 h1         1 UNY       0.068700
     43 H12          2.5250     0.4920    -2.2030 h1         1 UNY       0.068700
     44 H13         -1.5350     2.6290     1.8800 ha         1 UNY       0.138000
     45 H14         -3.8710     1.9010     1.6480 ha         1 UNY       0.127000
     46 H15         -0.0480     0.1990    -2.4800 h1         1 UNY       0.061700
     47 H16          0.2430    -1.0800    -1.2990 h1         1 UNY       0.061700
     48 H17         -2.7700    -0.7880    -1.5220 ha         1 UNY       0.122000
     49 H18         -4.9060     0.2720    -2.2270 ha         1 UNY       0.121000
     50 H19         -7.2210    -0.4660    -2.5150 ha         1 UNY       0.135000
     51 H20         -7.5300    -1.0000     1.7510 ha         1 UNY       0.138000
     52 H21         -9.2520    -2.3770     0.9850 h1         1 UNY       0.045700
     53 H22         -9.7680    -0.6810     1.1400 h1         1 UNY       0.045700
     54 H23        -10.6140    -1.7700     0.0260 h1         1 UNY       0.045700
@<TRIPOS>BOND
     1     1     2 2   
     2     2     3 1   
     3     2     5 1   
     4     3     4 1   
     5     3    32 1   
     6     4    33 1   
     7     5     6 1   
     8     5     7 1   
     9     5    11 1   
    10     6    34 1   
    11     6    35 1   
    12     6    36 1   
    13     7     8 1   
    14     7     9 2   
    15     7    10 2   
    16     8    37 1   
    17     8    38 1   
    18     8    39 1   
    19    11    12 1   
    20    11    40 1   
    21    11    41 1   
    22    12    13 1   
    23    12    42 1   
    24    12    43 1   
    25    13    14 1   
    26    13    19 1   
    27    14    15 2   
    28    14    16 1   
    29    16    17 ar  
    30    16    20 ar  
    31    17    18 ar  
    32    17    44 1   
    33    18    22 ar  
    34    18    45 1   
    35    19    20 1   
    36    19    46 1   
    37    19    47 1   
    38    20    21 ar  
    39    21    22 ar  
    40    21    48 1   
    41    22    23 1   
    42    23    24 ar  
    43    23    26 ar  
    44    24    25 1   
    45    24    29 ar  
    46    26    27 ar  
    47    26    49 1   
    48    27    28 ar  
    49    27    50 1   
    50    28    29 ar  
    51    28    30 1   
    52    29    51 1   
    53    30    31 1   
    54    31    52 1   
    55    31    53 1   
    56    31    54 1   
@<TRIPOS>SUBSTRUCTURE
     1 UNY         1 TEMP              0 ****  ****    0 ROOT
