@<TRIPOS>MOLECULE
UNY
   54    56     1     0     0
SMALL
No Charge or Current Charge


@<TRIPOS>ATOM
      1 O2           5.1130    -1.6320     1.6520 o          1 UNY      -0.579100
      2 C1           5.3490    -1.5820     0.4520 c          1 UNY       0.623100
      3 N            6.0840    -2.5870    -0.1720 ns         1 UNY      -0.362400
      4 O3           6.3920    -3.8270     0.5140 oh         1 UNY      -0.418100
      5 C            4.8020    -0.4470    -0.4460 c3         1 UNY      -0.308000
      6 C19          5.0830    -0.7000    -1.9720 c3         1 UNY      -0.092100
      7 S            5.7210     1.0530     0.0680 s6         1 UNY       1.057000
      8 C20          5.0660     1.5690     1.6560 c3         1 UNY      -0.315100
      9 O            7.1250     0.6760     0.2700 o          1 UNY      -0.516000
     10 O1           5.4120     2.1250    -0.8860 o          1 UNY      -0.516000
     11 C2           3.2470    -0.3350    -0.2100 c3         1 UNY      -0.084400
     12 C3           2.4880     0.7750    -0.9790 c3         1 UNY       0.106000
     13 N1           1.0520     0.7850    -0.6550 n          1 UNY      -0.420800
     14 C4           0.5150     1.6740     0.2890 c          1 UNY       0.581600
     15 O4           1.1310     2.5010     0.9470 o          1 UNY      -0.549000
     16 C5          -0.9330     1.4050     0.3340 ca         1 UNY      -0.159600
     17 C6          -1.9240     2.0160     1.1130 ca         1 UNY      -0.036000
     18 C7          -3.2510     1.5690     0.9650 ca         1 UNY      -0.102000
     19 C11          0.0250    -0.1020    -1.2850 c5         1 UNY       0.146300
     20 C10         -1.2220     0.3930    -0.5620 ca         1 UNY      -0.086300
     21 C9          -2.5410    -0.0590    -0.7160 ca         1 UNY      -0.092000
     22 C8          -3.5840     0.5230     0.0560 cp         1 UNY       0.006000
     23 C12         -4.9960     0.0560    -0.1080 cp         1 UNY      -0.129000
     24 C13         -5.8440    -0.1960     1.0030 ca         1 UNY       0.227000
     25 F           -5.3850    -0.0470     2.2660 f          1 UNY      -0.174000
     26 C18         -5.5270    -0.1570    -1.4030 ca         1 UNY      -0.039000
     27 C17         -6.8510    -0.5930    -1.5780 ca         1 UNY      -0.165000
     28 C15         -7.6750    -0.8310    -0.4700 ca         1 UNY       0.179100
     29 C14         -7.1660    -0.6330     0.8280 ca         1 UNY      -0.250000
     30 O5          -8.9660    -1.2590    -0.7040 os         1 UNY      -0.335100
     31 C16         -9.8900    -1.5310     0.3640 c3         1 UNY       0.145900
     32 H1           6.1210    -2.6180    -1.1890 hn         1 UNY       0.348500
     33 H2           7.3640    -3.9310     0.3820 ho         1 UNY       0.453000
     34 H3           4.5760    -1.6070    -2.3250 hc         1 UNY       0.059700
     35 H4           4.7260     0.1310    -2.5920 hc         1 UNY       0.059700
     36 H5           6.1570    -0.8000    -2.1780 hc         1 UNY       0.059700
     37 H6           5.2100     0.7570     2.3740 h1         1 UNY       0.120033
     38 H7           5.6280     2.4570     1.9600 h1         1 UNY       0.120033
     39 H8           4.0070     1.8100     1.5270 h1         1 UNY       0.120033
     40 H9           2.7890    -1.2970    -0.4750 hc         1 UNY       0.069200
     41 H10          3.0390    -0.2030     0.8600 hc         1 UNY       0.069200
     42 H11          2.9100     1.7600    -0.7490 h1         1 UNY       0.068700
     43 H12          2.5920     0.6150    -2.0600 h1         1 UNY       0.068700
     44 H13         -1.6760     2.8160     1.8090 ha         1 UNY       0.138000
     45 H14         -4.0340     2.0440     1.5510 ha         1 UNY       0.127000
     46 H15         -0.0440     0.0560    -2.3690 h1         1 UNY       0.061700
     47 H16          0.2190    -1.1630    -1.0810 h1         1 UNY       0.061700
     48 H17         -2.7600    -0.8600    -1.4180 ha         1 UNY       0.122000
     49 H18         -4.9100     0.0290    -2.2800 ha         1 UNY       0.121000
     50 H19         -7.2420    -0.7470    -2.5810 ha         1 UNY       0.135000
     51 H20         -7.7710    -0.8150     1.7090 ha         1 UNY       0.138000
     52 H21         -9.5110    -2.3290     1.0150 h1         1 UNY       0.045700
     53 H22        -10.0620    -0.6320     0.9700 h1         1 UNY       0.045700
     54 H23        -10.8560    -1.8560    -0.0430 h1         1 UNY       0.045700
@<TRIPOS>BOND
     1     1     2 2   
     2     2     3 1   
     3     2     5 1   
     4     3     4 1   
     5     3    32 1   
     6     4    33 1   
     7     5     6 1   
     8     5     7 1   
     9     5    11 1   
    10     6    34 1   
    11     6    35 1   
    12     6    36 1   
    13     7     8 1   
    14     7     9 2   
    15     7    10 2   
    16     8    37 1   
    17     8    38 1   
    18     8    39 1   
    19    11    12 1   
    20    11    40 1   
    21    11    41 1   
    22    12    13 1   
    23    12    42 1   
    24    12    43 1   
    25    13    14 1   
    26    13    19 1   
    27    14    15 2   
    28    14    16 1   
    29    16    17 ar  
    30    16    20 ar  
    31    17    18 ar  
    32    17    44 1   
    33    18    22 ar  
    34    18    45 1   
    35    19    20 1   
    36    19    46 1   
    37    19    47 1   
    38    20    21 ar  
    39    21    22 ar  
    40    21    48 1   
    41    22    23 1   
    42    23    24 ar  
    43    23    26 ar  
    44    24    25 1   
    45    24    29 ar  
    46    26    27 ar  
    47    26    49 1   
    48    27    28 ar  
    49    27    50 1   
    50    28    29 ar  
    51    28    30 1   
    52    29    51 1   
    53    30    31 1   
    54    31    52 1   
    55    31    53 1   
    56    31    54 1   
@<TRIPOS>SUBSTRUCTURE
     1 UNY         1 TEMP              0 ****  ****    0 ROOT
