@<TRIPOS>MOLECULE
UNZ
   54    56     1     0     0
SMALL
No Charge or Current Charge


@<TRIPOS>ATOM
      1 O2           4.9450    -0.2410     2.4720 o          1 UNZ      -0.585100
      2 C1           5.4130     0.3090     1.4840 c          1 UNZ       0.624100
      3 N            6.4200     1.2620     1.6100 ns         1 UNZ      -0.358400
      4 O3           6.7860     1.7990     2.9070 oh         1 UNZ      -0.418100
      5 C            4.8780     0.0300     0.0590 c3         1 UNZ      -0.304000
      6 C19          5.5040     0.9940    -1.0160 c3         1 UNZ      -0.096100
      7 S            5.4100    -1.6810    -0.3250 s6         1 UNZ       1.062000
      8 C20          4.3850    -2.7960     0.6400 c3         1 UNZ      -0.319100
      9 O            5.1080    -1.9450    -1.7360 o          1 UNZ      -0.512500
     10 O1           6.7940    -1.8390     0.1390 o          1 UNZ      -0.512500
     11 C2           3.3110     0.2050     0.0740 c3         1 UNZ      -0.086400
     12 C3           2.5490    -0.0670    -1.2480 c3         1 UNZ       0.106000
     13 N1           1.0980     0.1380    -1.1010 n          1 UNZ      -0.422800
     14 C4           0.4710     1.3200    -1.5260 c          1 UNZ       0.583600
     15 O4           1.0110     2.2920    -2.0360 o          1 UNZ      -0.540000
     16 C5          -0.9640     1.1560    -1.2310 ca         1 UNZ      -0.159600
     17 C6          -2.0220     2.0450    -1.4590 ca         1 UNZ      -0.037000
     18 C7          -3.3180     1.6420    -1.0810 ca         1 UNZ      -0.102000
     19 C11          0.1470    -0.8610    -0.5210 c5         1 UNZ       0.143300
     20 C10         -1.1580    -0.0870    -0.6580 ca         1 UNZ      -0.085300
     21 C9          -2.4450    -0.4970    -0.2790 ca         1 UNZ      -0.091000
     22 C8          -3.5530     0.3700    -0.4810 cp         1 UNZ       0.005000
     23 C12         -4.9310    -0.0610    -0.0900 cp         1 UNZ      -0.129000
     24 C13         -5.8250     0.7970     0.6040 ca         1 UNZ       0.227000
     25 F           -5.4410     2.0420     0.9650 f          1 UNZ      -0.174000
     26 C18         -5.3820    -1.3660    -0.4040 ca         1 UNZ      -0.039000
     27 C17         -6.6730    -1.7900    -0.0470 ca         1 UNZ      -0.165000
     28 C15         -7.5440    -0.9270     0.6330 ca         1 UNZ       0.179100
     29 C14         -7.1140     0.3740     0.9610 ca         1 UNZ      -0.251000
     30 O5          -8.7980    -1.3990     0.9570 os         1 UNZ      -0.335100
     31 C16         -9.7650    -0.5930     1.6540 c3         1 UNZ       0.145900
     32 H1           6.6720     1.8300     0.8040 hn         1 UNZ       0.351500
     33 HO3          7.7670     1.7040     2.9300 ho         1 UNZ       0.453000
     34 H191         6.5990     0.9160    -1.0460 hc         1 UNZ       0.064367
     35 H193         5.1510     0.7560    -2.0270 hc         1 UNZ       0.064367
     36 H192         5.2350     2.0390    -0.8180 hc         1 UNZ       0.064367
     37 H201         4.7090    -3.8140     0.4050 h1         1 UNZ       0.111367
     38 H203         4.5360    -2.5810     1.7020 h1         1 UNZ       0.111367
     39 H202         3.3420    -2.6470     0.3440 h1         1 UNZ       0.111367
     40 H22          2.8700    -0.4270     0.8550 hc         1 UNZ       0.070200
     41 H21          3.0840     1.2360     0.3770 hc         1 UNZ       0.070200
     42 H32          2.9260     0.5870    -2.0440 h1         1 UNZ       0.069200
     43 H31          2.7100    -1.1040    -1.5690 h1         1 UNZ       0.069200
     44 H6          -1.8490     3.0170    -1.9180 ha         1 UNZ       0.137000
     45 H7          -4.1520     2.3140    -1.2660 ha         1 UNZ       0.126000
     46 H112         0.1290    -1.7940    -1.1000 h1         1 UNZ       0.060700
     47 H2           0.3770    -1.0860     0.5290 h1         1 UNZ       0.060700
     48 H9          -2.5880    -1.4740     0.1770 ha         1 UNZ       0.122000
     49 H18         -4.7280    -2.0520    -0.9390 ha         1 UNZ       0.122000
     50 H17         -7.0020    -2.7940    -0.3010 ha         1 UNZ       0.135000
     51 H14         -7.7570     1.0660     1.4940 ha         1 UNZ       0.138000
     52 H163        -9.3850    -0.2900     2.6380 h1         1 UNZ       0.045700
     53 H162       -10.0110     0.3080     1.0780 h1         1 UNZ       0.045700
     54 H161       -10.6920    -1.1590     1.8090 h1         1 UNZ       0.045700
@<TRIPOS>BOND
     1     1     2 2   
     2     2     3 1   
     3     2     5 1   
     4     3     4 1   
     5     3    32 1   
     6     4    33 1   
     7     5     6 1   
     8     5     7 1   
     9     5    11 1   
    10     6    34 1   
    11     6    35 1   
    12     6    36 1   
    13     7     8 1   
    14     7     9 2   
    15     7    10 2   
    16     8    37 1   
    17     8    38 1   
    18     8    39 1   
    19    11    12 1   
    20    11    40 1   
    21    11    41 1   
    22    12    13 1   
    23    12    42 1   
    24    12    43 1   
    25    13    14 1   
    26    13    19 1   
    27    14    15 2   
    28    14    16 1   
    29    16    17 ar  
    30    16    20 ar  
    31    17    18 ar  
    32    17    44 1   
    33    18    22 ar  
    34    18    45 1   
    35    19    20 1   
    36    19    46 1   
    37    19    47 1   
    38    20    21 ar  
    39    21    22 ar  
    40    21    48 1   
    41    22    23 1   
    42    23    24 ar  
    43    23    26 ar  
    44    24    25 1   
    45    24    29 ar  
    46    26    27 ar  
    47    26    49 1   
    48    27    28 ar  
    49    27    50 1   
    50    28    29 ar  
    51    28    30 1   
    52    29    51 1   
    53    30    31 1   
    54    31    52 1   
    55    31    53 1   
    56    31    54 1   
@<TRIPOS>SUBSTRUCTURE
     1 UNZ         1 TEMP              0 ****  ****    0 ROOT
