@<TRIPOS>MOLECULE
UNZ
   54    56     1     0     0
SMALL
bcc


@<TRIPOS>ATOM
      1 O2           4.7070    -0.1310     2.4490 o          1 UNZ      -0.585100
      2 C1           5.2080     0.4110     1.4820 c          1 UNZ       0.691100
      3 N            6.1820     1.3230     1.5670 ns         1 UNZ      -0.425400
      4 O3           6.5500     1.7940     2.7880 oh         1 UNZ      -0.379100
      5 C            4.7410     0.0730     0.0580 c3         1 UNZ      -0.193200
      6 C19          5.4610     0.8310    -1.0570 c3         1 UNZ      -0.096100
      7 S            5.2050    -1.6970    -0.1770 s6         1 UNZ       0.982000
      8 C20          4.0580    -2.6970     0.7460 c3         1 UNZ      -0.208300
      9 O            5.0310    -2.0230    -1.5930 o          1 UNZ      -0.583300
     10 O1           6.5400    -1.8550     0.4000 o          1 UNZ      -0.583300
     11 C2           3.2220     0.2900     0.0130 c3         1 UNZ      -0.086400
     12 C3           2.5280    -0.0230    -1.3150 c3         1 UNZ       0.106000
     13 N1           1.1120     0.2180    -1.2170 n          1 UNZ      -0.489800
     14 C4           0.5110     1.3770    -1.5840 c          1 UNZ       0.726100
     15 O4           1.0580     2.3490    -2.0780 o          1 UNZ      -0.615500
     16 C5          -0.9210     1.2050    -1.2660 ca         1 UNZ      -0.159600
     17 C6          -1.9800     2.0760    -1.4590 ca         1 UNZ      -0.055000
     18 C7          -3.2430     1.6640    -1.0670 ca         1 UNZ      -0.120000
     19 C11          0.2080    -0.7510    -0.6310 c5         1 UNZ       0.143300
     20 C10         -1.1090    -0.0450    -0.7020 ca         1 UNZ      -0.085300
     21 C9          -2.3650    -0.4600    -0.3060 ca         1 UNZ      -0.109000
     22 C8          -3.4490     0.4020    -0.4900 cp         1 UNZ       0.005000
     23 C12         -4.7990    -0.0510    -0.1040 cp         1 UNZ      -0.129000
     24 C13         -5.6630     0.7150     0.6610 ca         1 UNZ       0.191900
     25 F           -5.2620     1.9240     1.0830 f          1 UNZ      -0.138900
     26 C18         -5.2710    -1.3140    -0.4780 ca         1 UNZ      -0.057000
     27 C17         -6.5230    -1.7680    -0.1190 ca         1 UNZ      -0.183000
     28 C15         -7.3650    -0.9590     0.6490 ca         1 UNZ       0.179100
     29 C14         -6.9250     0.3000     1.0470 ca         1 UNZ      -0.269000
     30 O5          -8.5670    -1.4640     0.9580 os         1 UNZ      -0.311900
     31 C16         -9.4520    -0.6850     1.7400 c3         1 UNZ       0.122700
     32 H1           6.5220     1.8650     0.7880 hn         1 UNZ       0.351500
     33 HO3          7.3180     1.2740     3.0590 ho         1 UNZ       0.414000
     34 H191         6.5430     0.7010    -1.0240 hc         1 UNZ       0.064367
     35 H193         5.1290     0.5050    -2.0380 hc         1 UNZ       0.064367
     36 H192         5.2340     1.8950    -0.9840 hc         1 UNZ       0.064367
     37 H201         4.3800    -3.7270     0.5930 h1         1 UNZ       0.111367
     38 H203         4.0970    -2.4390     1.7990 h1         1 UNZ       0.111367
     39 H202         3.0500    -2.5750     0.3560 h1         1 UNZ       0.111367
     40 H22          2.7460    -0.2700     0.8200 hc         1 UNZ       0.070200
     41 H21          3.0550     1.3460     0.2410 hc         1 UNZ       0.070200
     42 H32          2.9250     0.5970    -2.1180 h1         1 UNZ       0.069200
     43 H31          2.6750    -1.0600    -1.6190 h1         1 UNZ       0.069200
     44 H6          -1.8320     3.0480    -1.9110 ha         1 UNZ       0.155000
     45 H7          -4.0860     2.3200    -1.2380 ha         1 UNZ       0.144000
     46 H112         0.2070    -1.6830    -1.2040 h1         1 UNZ       0.060700
     47 H2           0.4890    -0.9950     0.3980 h1         1 UNZ       0.060700
     48 H9          -2.5120    -1.4320     0.1480 ha         1 UNZ       0.140000
     49 H18         -4.6380    -1.9490    -1.0850 ha         1 UNZ       0.140000
     50 H17         -6.8600    -2.7470    -0.4360 ha         1 UNZ       0.153000
     51 H14         -7.5260     0.9620     1.6560 ha         1 UNZ       0.156000
     52 H163        -9.0340    -0.4620     2.7250 h1         1 UNZ       0.045700
     53 H162        -9.7140     0.2530     1.2440 h1         1 UNZ       0.045700
     54 H161       -10.3540    -1.2780     1.8680 h1         1 UNZ       0.045700
@<TRIPOS>BOND
     1     1     2 2   
     2     2     3 1   
     3     2     5 1   
     4     3     4 1   
     5     3    32 1   
     6     4    33 1   
     7     5     6 1   
     8     5     7 1   
     9     5    11 1   
    10     6    34 1   
    11     6    35 1   
    12     6    36 1   
    13     7     8 1   
    14     7     9 2   
    15     7    10 2   
    16     8    37 1   
    17     8    38 1   
    18     8    39 1   
    19    11    12 1   
    20    11    40 1   
    21    11    41 1   
    22    12    13 1   
    23    12    42 1   
    24    12    43 1   
    25    13    14 1   
    26    13    19 1   
    27    14    15 2   
    28    14    16 1   
    29    16    17 ar  
    30    16    20 ar  
    31    17    18 ar  
    32    17    44 1   
    33    18    22 ar  
    34    18    45 1   
    35    19    20 1   
    36    19    46 1   
    37    19    47 1   
    38    20    21 ar  
    39    21    22 ar  
    40    21    48 1   
    41    22    23 1   
    42    23    24 ar  
    43    23    26 ar  
    44    24    25 1   
    45    24    29 ar  
    46    26    27 ar  
    47    26    49 1   
    48    27    28 ar  
    49    27    50 1   
    50    28    29 ar  
    51    28    30 1   
    52    29    51 1   
    53    30    31 1   
    54    31    52 1   
    55    31    53 1   
    56    31    54 1   
@<TRIPOS>SUBSTRUCTURE
     1 UNZ         1 TEMP              0 ****  ****    0 ROOT
