@<TRIPOS>MOLECULE
UO1
   42    44     1     0     0
SMALL
abcg2


@<TRIPOS>ATOM
      1 C01          3.0990     2.6670    -1.7170 c3         1 UO1      -0.180100
      2 C02          3.4110     1.2520    -1.3230 c          1 UO1       0.623100
      3 O03          4.4490     0.7000    -1.5960 o          1 UO1      -0.533100
      4 N04          2.4220     0.5810    -0.6090 n          1 UO1      -0.095600
      5 C05          1.2110     1.1300    -0.2150 cc         1 UO1      -0.118400
      6 C06          0.4880     0.2050     0.4540 cd         1 UO1       0.017400
      7 N07         -0.8210     0.3700     0.9420 n          1 UO1      -0.159600
      8 C08         -1.1420     0.3540     2.2730 c          1 UO1       0.617100
      9 C09         -0.0120     0.3720     3.2670 c3         1 UO1      -0.174100
     10 O10         -2.3050     0.3420     2.6320 o          1 UO1      -0.578100
     11 C11         -1.8710     0.4100    -0.0280 ca         1 UO1      -0.001000
     12 C12         -2.5450     1.6030    -0.2810 ca         1 UO1      -0.098300
     13 C13         -2.2430     2.8690     0.4650 c3         1 UO1      -0.037800
     14 C14         -3.5300     1.5710    -1.2660 ca         1 UO1      -0.073000
     15 C15         -3.8360     0.4200    -1.9730 ca         1 UO1      -0.141000
     16 C16         -3.1450    -0.7580    -1.7050 ca         1 UO1       0.143100
     17 C17         -2.1610    -0.7560    -0.7240 ca         1 UO1      -0.200000
     18 O18         -3.4650    -1.8600    -2.4110 oh         1 UO1      -0.533100
     19 C19          1.2610    -1.0060     0.4950 ca         1 UO1      -0.109800
     20 C20          2.4710    -0.7440    -0.1680 ca         1 UO1      -0.075000
     21 C21          3.4480    -1.7270    -0.2970 ca         1 UO1      -0.097000
     22 C22          3.1780    -2.9700     0.2530 ca         1 UO1      -0.096000
     23 C23          1.9760    -3.2400     0.9150 ca         1 UO1      -0.126000
     24 C24          1.0090    -2.2610     1.0430 ca         1 UO1      -0.072000
     25 H1           3.9330     3.0680    -2.2870 hc         1 UO1       0.072700
     26 H2           2.1990     2.7200    -2.3290 hc         1 UO1       0.072700
     27 H3           2.9450     3.2970    -0.8400 hc         1 UO1       0.072700
     28 H4           0.9490     2.1470    -0.4530 h4         1 UO1       0.225000
     29 H5           0.9780     0.4860     2.8360 hc         1 UO1       0.065367
     30 H6          -0.1830     1.1940     3.9620 hc         1 UO1       0.065367
     31 H7          -0.0330    -0.5500     3.8490 hc         1 UO1       0.065367
     32 H8          -2.6270     2.8350     1.4860 hc         1 UO1       0.042033
     33 H9          -1.1720     3.0640     0.5320 hc         1 UO1       0.042033
     34 H10         -2.7020     3.7240    -0.0290 hc         1 UO1       0.042033
     35 H11         -4.0750     2.4790    -1.4920 ha         1 UO1       0.115000
     36 H12         -4.6050     0.4340    -2.7350 ha         1 UO1       0.129000
     37 H13         -1.6130    -1.6640    -0.4940 ha         1 UO1       0.123000
     38 H14         -2.9230    -2.6080    -2.1360 ho         1 UO1       0.466000
     39 H15          4.3830    -1.5460    -0.8030 ha         1 UO1       0.144000
     40 H16          3.9210    -3.7510     0.1640 ha         1 UO1       0.116000
     41 H17          1.8050    -4.2250     1.3280 ha         1 UO1       0.116000
     42 H18          0.0750    -2.4670     1.5530 ha         1 UO1       0.121000
@<TRIPOS>BOND
     1     1     2 1   
     2     1    25 1   
     3     1    26 1   
     4     1    27 1   
     5     2     3 2   
     6     2     4 1   
     7     4     5 1   
     8     4    20 1   
     9     5     6 2   
    10     5    28 1   
    11     6     7 1   
    12     6    19 1   
    13     7     8 1   
    14     7    11 1   
    15     8     9 1   
    16     8    10 2   
    17     9    29 1   
    18     9    30 1   
    19     9    31 1   
    20    11    12 ar  
    21    11    17 ar  
    22    12    13 1   
    23    12    14 ar  
    24    13    32 1   
    25    13    33 1   
    26    13    34 1   
    27    14    15 ar  
    28    14    35 1   
    29    15    16 ar  
    30    15    36 1   
    31    16    17 ar  
    32    16    18 1   
    33    17    37 1   
    34    18    38 1   
    35    19    20 ar  
    36    19    24 ar  
    37    20    21 ar  
    38    21    22 ar  
    39    21    39 1   
    40    22    23 ar  
    41    22    40 1   
    42    23    24 ar  
    43    23    41 1   
    44    24    42 1   
@<TRIPOS>SUBSTRUCTURE
     1 UO1         1 TEMP              0 ****  ****    0 ROOT
