@<TRIPOS>MOLECULE
UO1
   42    44     1     0     0
SMALL
No Charge or Current Charge


@<TRIPOS>ATOM
      1 C01          2.6740     2.3260    -2.3870 c3         1 UO1      -0.180100
      2 C02          3.1490     1.0700    -1.6520 c          1 UO1       0.623100
      3 O03          4.2890     0.6610    -1.8400 o          1 UO1      -0.533100
      4 N04          2.2410     0.4180    -0.7680 n          1 UO1      -0.095600
      5 C05          0.9240     0.8280    -0.5030 cc         1 UO1      -0.118400
      6 C06          0.3610    -0.0240     0.4230 cd         1 UO1       0.017400
      7 N07         -0.9280     0.0630     0.9530 n          1 UO1      -0.159600
      8 C08         -1.2560     0.0060     2.3310 c          1 UO1       0.617100
      9 C09         -0.1400     0.1280     3.3770 c3         1 UO1      -0.174100
     10 O10         -2.4240    -0.0660     2.6990 o          1 UO1      -0.578100
     11 C11         -1.8590     0.4030    -0.0880 ca         1 UO1      -0.001000
     12 C12         -2.4310     1.6960    -0.1740 ca         1 UO1      -0.098300
     13 C13         -2.0780     2.7960     0.8240 c3         1 UO1      -0.037800
     14 C14         -3.3370     1.9810    -1.2160 ca         1 UO1      -0.073000
     15 C15         -3.6640     0.9970    -2.1640 ca         1 UO1      -0.141000
     16 C16         -3.0890    -0.2770    -2.0810 ca         1 UO1       0.143100
     17 C17         -2.1880    -0.5740    -1.0480 ca         1 UO1      -0.200000
     18 O18         -3.4080    -1.2250    -3.0060 oh         1 UO1      -0.533100
     19 C19          1.3340    -1.0660     0.7280 ca         1 UO1      -0.109800
     20 C20          2.4820    -0.7740     0.0020 ca         1 UO1      -0.075000
     21 C21          3.6040    -1.6220     0.0550 ca         1 UO1      -0.097000
     22 C22          3.5310    -2.7750     0.8650 ca         1 UO1      -0.096000
     23 C23          2.3500    -3.0790     1.5810 ca         1 UO1      -0.126000
     24 C24          1.2300    -2.2270     1.5080 ca         1 UO1      -0.072000
     25 H1           3.4490     2.7470    -3.0380 hc         1 UO1       0.072700
     26 H2           1.7650     2.0920    -2.9510 hc         1 UO1       0.072700
     27 H3           2.3280     3.0630    -1.6540 hc         1 UO1       0.072700
     28 H4           0.5230     1.7070    -0.9920 h4         1 UO1       0.225000
     29 H5           0.7400     0.6360     2.9690 hc         1 UO1       0.065367
     30 H6          -0.5060     0.6150     4.2880 hc         1 UO1       0.065367
     31 H7           0.2000    -0.8750     3.6490 hc         1 UO1       0.065367
     32 H8          -2.6110     2.6530     1.7710 hc         1 UO1       0.042033
     33 H9          -1.0030     2.8150     1.0400 hc         1 UO1       0.042033
     34 H10         -2.3460     3.7890     0.4430 hc         1 UO1       0.042033
     35 H11         -3.7870     2.9690    -1.2950 ha         1 UO1       0.115000
     36 H12         -4.3620     1.2260    -2.9650 ha         1 UO1       0.129000
     37 H13         -1.7400    -1.5620    -0.9800 ha         1 UO1       0.123000
     38 H14         -2.9150    -2.0460    -2.7890 ho         1 UO1       0.466000
     39 H15          4.5080    -1.4160    -0.5100 ha         1 UO1       0.144000
     40 H16          4.3850    -3.4460     0.9240 ha         1 UO1       0.116000
     41 H17          2.3010    -3.9850     2.1820 ha         1 UO1       0.116000
     42 H18          0.3080    -2.4830     2.0250 ha         1 UO1       0.121000
@<TRIPOS>BOND
     1     1     2 1   
     2     1    25 1   
     3     1    26 1   
     4     1    27 1   
     5     2     3 2   
     6     2     4 1   
     7     4     5 1   
     8     4    20 1   
     9     5     6 2   
    10     5    28 1   
    11     6     7 1   
    12     6    19 1   
    13     7     8 1   
    14     7    11 1   
    15     8     9 1   
    16     8    10 2   
    17     9    29 1   
    18     9    30 1   
    19     9    31 1   
    20    11    12 ar  
    21    11    17 ar  
    22    12    13 1   
    23    12    14 ar  
    24    13    32 1   
    25    13    33 1   
    26    13    34 1   
    27    14    15 ar  
    28    14    35 1   
    29    15    16 ar  
    30    15    36 1   
    31    16    17 ar  
    32    16    18 1   
    33    17    37 1   
    34    18    38 1   
    35    19    20 ar  
    36    19    24 ar  
    37    20    21 ar  
    38    21    22 ar  
    39    21    39 1   
    40    22    23 ar  
    41    22    40 1   
    42    23    24 ar  
    43    23    41 1   
    44    24    42 1   
@<TRIPOS>SUBSTRUCTURE
     1 UO1         1 TEMP              0 ****  ****    0 ROOT
