@<TRIPOS>MOLECULE
UO2
   48    50     1     0     0
SMALL
abcg2


@<TRIPOS>ATOM
      1 N1           5.5000   -14.3220     6.5820 na         1 UO2       0.025500
      2 C4           7.0930   -14.8520     7.8310 ca         1 UO2      -0.080000
      3 C6           8.0120   -14.9990     8.8930 ca         1 UO2      -0.061000
      4 C7           9.1320   -15.7480     8.6830 ca         1 UO2      -0.095000
      5 C8           9.3830   -16.3800     7.4270 ca         1 UO2      -0.036000
      6 C13         12.3350   -18.7480     7.5200 c3         1 UO2       0.091500
      7 C15         11.8380   -19.9570     6.7300 c3         1 UO2      -0.089100
      8 C17          6.2340   -16.6310     3.8560 ca         1 UO2      -0.001000
      9 C20          5.0220   -14.7130     2.2520 ca         1 UO2      -0.125000
     10 C21          5.3200   -14.4260     3.5740 ca         1 UO2      -0.060000
     11 C24          8.2230   -17.3220     0.2260 c3         1 UO2       0.166600
     12 N23          8.0170   -18.2370     1.3430 n3         1 UO2      -0.700500
     13 C25          9.0040   -18.0900     2.4060 c3         1 UO2       0.166600
     14 O26          6.4550   -19.4490     2.8800 o          1 UO2      -0.528000
     15 O27          5.6580   -18.6840     0.6290 o          1 UO2      -0.528000
     16 C18          5.9500   -16.8960     2.5240 ca         1 UO2      -0.299500
     17 C19          5.3420   -15.9490     1.7100 ca         1 UO2      -0.012000
     18 C16          5.9290   -15.3810     4.3920 ca         1 UO2      -0.045800
     19 C2           6.2570   -15.0940     5.7820 cc         1 UO2      -0.063300
     20 C3           7.3430   -15.4740     6.5790 ca         1 UO2      -0.103000
     21 C9           8.5070   -16.2440     6.3810 ca         1 UO2      -0.116000
     22 N5           5.9540   -14.1550     7.8090 nc         1 UO2      -0.262400
     23 N10         10.5730   -17.1020     7.2240 ns         1 UO2      -0.155000
     24 C11         11.1230   -17.9980     8.0840 c          1 UO2       0.560100
     25 O12         10.6860   -18.2190     9.1980 o          1 UO2      -0.582100
     26 N14         13.2750   -19.1720     8.5330 n8         1 UO2      -0.984200
     27 H1           4.6130   -13.9030     6.3360 hn         1 UO2       0.374000
     28 H2           7.8400   -14.5140     9.8450 ha         1 UO2       0.133000
     29 H3           9.8570   -15.8460     9.4760 ha         1 UO2       0.135000
     30 H4          12.8640   -18.0810     6.8320 h1         1 UO2       0.063700
     31 H5          12.6840   -20.4880     6.2960 hc         1 UO2       0.048033
     32 H6          11.2990   -20.6500     7.3800 hc         1 UO2       0.048033
     33 H7          11.1690   -19.6660     5.9200 hc         1 UO2       0.048033
     34 H8           6.6630   -17.3970     4.4880 ha         1 UO2       0.144000
     35 H9           4.5470   -13.9630     1.6350 ha         1 UO2       0.124000
     36 H10          5.0910   -13.4420     3.9630 ha         1 UO2       0.115000
     37 H11          9.2310   -17.4820    -0.1540 h1         1 UO2       0.053533
     38 H12          7.5260   -17.5290    -0.5810 h1         1 UO2       0.053533
     39 H13          8.1310   -16.2710     0.5210 h1         1 UO2       0.053533
     40 H14          8.8730   -18.8540     3.1670 h1         1 UO2       0.053533
     41 H15          9.9890   -18.2220     1.9640 h1         1 UO2       0.053533
     42 H16          8.9720   -17.1020     2.8780 h1         1 UO2       0.053533
     43 H17          5.1120   -16.1640     0.6760 ha         1 UO2       0.140000
     44 H18          8.7200   -16.7150     5.4280 ha         1 UO2       0.108000
     45 H19         10.9540   -17.0710     6.2900 hn         1 UO2       0.148000
     46 H20         13.6330   -18.3690     9.0360 hn         1 UO2       0.411000
     47 H21         12.8000   -19.7440     9.2220 hn         1 UO2       0.411000
     48 S22          6.4480   -18.4520     1.8250 sy         1 UO2       1.145600
@<TRIPOS>BOND
     1     1    19 1   
     2     1    22 1   
     3     1    27 1   
     4     2     3 ar  
     5     2    20 ar  
     6     2    22 2   
     7     3     4 ar  
     8     3    28 1   
     9     4     5 ar  
    10     4    29 1   
    11     5    21 ar  
    12     5    23 1   
    13     6     7 1   
    14     6    24 1   
    15     6    26 1   
    16     6    30 1   
    17     7    31 1   
    18     7    32 1   
    19     7    33 1   
    20     8    16 ar  
    21     8    18 ar  
    22     8    34 1   
    23     9    10 ar  
    24     9    17 ar  
    25     9    35 1   
    26    10    18 ar  
    27    10    36 1   
    28    11    12 1   
    29    11    37 1   
    30    11    38 1   
    31    11    39 1   
    32    12    13 1   
    33    12    48 1   
    34    13    40 1   
    35    13    41 1   
    36    13    42 1   
    37    14    48 2   
    38    15    48 2   
    39    16    17 ar  
    40    16    48 1   
    41    17    43 1   
    42    18    19 1   
    43    19    20 2   
    44    20    21 ar  
    45    21    44 1   
    46    23    24 1   
    47    23    45 1   
    48    24    25 2   
    49    26    46 1   
    50    26    47 1   
@<TRIPOS>SUBSTRUCTURE
     1 UO2         1 TEMP              0 ****  ****    0 ROOT
