@<TRIPOS>MOLECULE
UO2
   48    50     1     0     0
SMALL
No Charge or Current Charge


@<TRIPOS>ATOM
      1 N1           5.3560   -14.1580     6.5860 na         1 UO2       0.025500
      2 C4           6.8660   -15.0020     7.9160 ca         1 UO2      -0.080000
      3 C6           7.6700   -15.3390     9.0140 ca         1 UO2      -0.061000
      4 C7           8.7830   -16.1860     8.8180 ca         1 UO2      -0.095000
      5 C8           9.0980   -16.6830     7.5240 ca         1 UO2      -0.036000
      6 C13         12.2670   -18.9290     7.3000 c3         1 UO2       0.091500
      7 C15         12.0300   -20.4150     7.6460 c3         1 UO2      -0.089100
      8 C17          6.2260   -16.4870     3.8180 ca         1 UO2      -0.001000
      9 C20          5.3500   -14.4010     2.1560 ca         1 UO2      -0.125000
     10 C21          5.5330   -14.1750     3.5310 ca         1 UO2      -0.060000
     11 C24          8.2880   -17.3770     0.1380 c3         1 UO2       0.166600
     12 N23          8.0170   -18.2640     1.2900 n3         1 UO2      -0.700500
     13 C25          8.9440   -18.0100     2.4140 c3         1 UO2       0.166600
     14 O26          6.2930   -19.3630     2.8020 o          1 UO2      -0.528000
     15 O27          5.6100   -18.5110     0.4990 o          1 UO2      -0.528000
     16 C18          6.0490   -16.7150     2.4370 ca         1 UO2      -0.299500
     17 C19          5.6080   -15.6670     1.6050 ca         1 UO2      -0.012000
     18 C16          5.9820   -15.2140     4.3720 ca         1 UO2      -0.045800
     19 C2           6.1650   -14.9750     5.8050 cc         1 UO2      -0.063300
     20 C3           7.1610   -15.5100     6.6730 ca         1 UO2      -0.103000
     21 C9           8.2720   -16.3330     6.4350 ca         1 UO2      -0.116000
     22 N5           5.7520   -14.1570     7.9310 nc         1 UO2      -0.262400
     23 N10         10.2120   -17.5270     7.2550 ns         1 UO2      -0.155000
     24 C11         11.2400   -18.0100     8.0580 c          1 UO2       0.560100
     25 O12         11.3800   -17.7270     9.2450 o          1 UO2      -0.582100
     26 N14         13.7160   -18.5960     7.5200 n8         1 UO2      -0.984200
     27 H1           4.5480   -13.6270     6.2780 hn         1 UO2       0.374000
     28 H2           7.4430   -14.9490    10.0040 ha         1 UO2       0.133000
     29 H3           9.3880   -16.4360     9.6830 ha         1 UO2       0.135000
     30 H4          12.0690   -18.8080     6.2250 h1         1 UO2       0.063700
     31 H5          12.7040   -21.0610     7.0710 hc         1 UO2       0.048033
     32 H6          12.1990   -20.6020     8.7130 hc         1 UO2       0.048033
     33 H7          11.0000   -20.7040     7.4070 hc         1 UO2       0.048033
     34 H8           6.5320   -17.3040     4.4670 ha         1 UO2       0.144000
     35 H9           5.0090   -13.5920     1.5150 ha         1 UO2       0.124000
     36 H10          5.3380   -13.1850     3.9360 ha         1 UO2       0.115000
     37 H11          9.3450   -17.4380    -0.1560 h1         1 UO2       0.053533
     38 H12          7.6900   -17.6620    -0.7370 h1         1 UO2       0.053533
     39 H13          8.0680   -16.3290     0.3820 h1         1 UO2       0.053533
     40 H14          8.8000   -18.7380     3.2230 h1         1 UO2       0.053533
     41 H15          9.9870   -18.0930     2.0800 h1         1 UO2       0.053533
     42 H16          8.8040   -17.0020     2.8270 h1         1 UO2       0.053533
     43 H17          5.4600   -15.8260     0.5380 ha         1 UO2       0.140000
     44 H18          8.5040   -16.6840     5.4340 ha         1 UO2       0.108000
     45 H19         10.2590   -17.8390     6.2930 hn         1 UO2       0.148000
     46 H20         13.8920   -17.6210     7.2430 hn         1 UO2       0.411000
     47 H21         13.9030   -18.5850     8.5310 hn         1 UO2       0.411000
     48 S22          6.3710   -18.3490     1.7440 sy         1 UO2       1.145600
@<TRIPOS>BOND
     1     1    19 1   
     2     1    22 1   
     3     1    27 1   
     4     2     3 ar  
     5     2    20 ar  
     6     2    22 2   
     7     3     4 ar  
     8     3    28 1   
     9     4     5 ar  
    10     4    29 1   
    11     5    21 ar  
    12     5    23 1   
    13     6     7 1   
    14     6    24 1   
    15     6    26 1   
    16     6    30 1   
    17     7    31 1   
    18     7    32 1   
    19     7    33 1   
    20     8    16 ar  
    21     8    18 ar  
    22     8    34 1   
    23     9    10 ar  
    24     9    17 ar  
    25     9    35 1   
    26    10    18 ar  
    27    10    36 1   
    28    11    12 1   
    29    11    37 1   
    30    11    38 1   
    31    11    39 1   
    32    12    13 1   
    33    12    48 1   
    34    13    40 1   
    35    13    41 1   
    36    13    42 1   
    37    14    48 2   
    38    15    48 2   
    39    16    17 ar  
    40    16    48 1   
    41    17    43 1   
    42    18    19 1   
    43    19    20 2   
    44    20    21 ar  
    45    21    44 1   
    46    23    24 1   
    47    23    45 1   
    48    24    25 2   
    49    26    46 1   
    50    26    47 1   
@<TRIPOS>SUBSTRUCTURE
     1 UO2         1 TEMP              0 ****  ****    0 ROOT
