@<TRIPOS>MOLECULE
UO4
   60    64     1     0     0
SMALL
bcc


@<TRIPOS>ATOM
      1 C00        523.5160   -32.1240   141.4250 ca         1 UO4      -0.206000
      2 C01        524.6520   -31.5190   141.9520 ca         1 UO4      -0.091000
      3 C02        524.9200   -31.5780   143.3080 ca         1 UO4      -0.151000
      4 C03        524.0440   -32.2560   144.1480 ca         1 UO4      -0.096000
      5 C04        522.9180   -32.8660   143.6310 ca         1 UO4       0.066100
      6 C05        522.6340   -32.8010   142.2590 ca         1 UO4       0.121100
      7 O0A        522.1340   -33.6150   144.4650 os         1 UO4      -0.239200
      8 O0B        521.4990   -33.4020   141.8630 os         1 UO4      -0.316900
      9 C0C        520.8410   -33.2830   144.7240 ca         1 UO4       0.150100
     10 C0D        521.0940   -33.2940   140.5120 c3         1 UO4       0.115400
     11 C0E        519.6310   -33.6720   140.4410 c3         1 UO4       0.109000
     12 N0H        519.3380   -34.9700   141.0320 n          1 UO4      -0.371000
     13 C0K        519.6350   -36.1060   140.3100 c          1 UO4       0.826500
     14 N0M        519.3450   -37.2830   140.9470 ns         1 UO4      -0.600500
     15 C0N        518.8000   -37.4570   142.2110 c          1 UO4       0.732700
     16 C0O        518.5230   -36.2170   142.8910 cc         1 UO4      -0.332200
     17 C0P        518.8090   -35.0520   142.2850 cd         1 UO4       0.068600
     18 O0Q        520.1130   -36.0660   139.1950 o          1 UO4      -0.641500
     19 O0S        518.5960   -38.5760   142.6470 o          1 UO4      -0.602500
     20 C0V        520.0900   -34.1990   145.4240 ca         1 UO4      -0.097300
     21 C0W        518.7390   -33.8560   145.7100 ca         1 UO4      -0.020000
     22 C0X        518.1850   -32.6130   145.2880 ca         1 UO4      -0.047000
     23 C0Y        519.0080   -31.6970   144.5770 ca         1 UO4      -0.049300
     24 C0Z        520.3050   -32.0460   144.3170 ca         1 UO4      -0.168000
     25 C10        520.6500   -35.5180   145.8660 c3         1 UO4      -0.043800
     26 C11        517.9060   -34.7570   146.4110 ca         1 UO4      -0.083000
     27 C12        516.8330   -32.3250   145.5890 ca         1 UO4      -0.112000
     28 C13        518.5110   -30.3430   144.1490 c3         1 UO4      -0.004100
     29 C15        516.5950   -34.4410   146.6800 ca         1 UO4      -0.008000
     30 C16        516.0440   -33.2090   146.2670 ca         1 UO4      -0.108000
     31 C18        515.7810   -35.3750   147.3870 cg         1 UO4       0.230800
     32 N1B        515.1180   -36.1250   147.9590 n1         1 UO4      -0.356800
     33 C1C        518.5470   -29.3400   145.2810 cx         1 UO4      -0.124700
     34 C1G        519.8380   -28.6670   145.6250 cx         1 UO4      -0.129400
     35 C1H        518.7310   -27.8860   144.9780 cx         1 UO4      -0.129400
     36 H1         523.3380   -32.0650   140.3590 ha         1 UO4       0.139000
     37 H2         525.3280   -30.9990   141.2850 ha         1 UO4       0.137000
     38 H3         525.8030   -31.1060   143.7170 ha         1 UO4       0.142000
     39 H4         524.2370   -32.3240   145.2120 ha         1 UO4       0.152000
     40 H5         521.7090   -33.9370   139.8760 h1         1 UO4       0.057200
     41 H6         521.1860   -32.2680   140.1450 h1         1 UO4       0.057200
     42 H7         519.0300   -32.9320   140.9680 h1         1 UO4       0.073700
     43 H8         519.3120   -33.6600   139.4010 h1         1 UO4       0.073700
     44 H9         519.5580   -38.1230   140.4220 hn         1 UO4       0.342500
     45 H10        518.0870   -36.2340   143.8770 ha         1 UO4       0.175000
     46 H11        518.6140   -34.1030   142.7650 h4         1 UO4       0.163000
     47 H12        520.9300   -31.3400   143.7840 ha         1 UO4       0.143000
     48 H13        520.5870   -35.6330   146.9490 hc         1 UO4       0.051367
     49 H14        520.1010   -36.3500   145.4210 hc         1 UO4       0.051367
     50 H15        521.6930   -35.6350   145.5880 hc         1 UO4       0.051367
     51 H16        518.2960   -35.7080   146.7450 ha         1 UO4       0.150000
     52 H17        516.4030   -31.3840   145.2760 ha         1 UO4       0.138000
     53 H18        519.1450   -29.9810   143.3340 hc         1 UO4       0.049200
     54 H19        517.5010   -30.4080   143.7360 hc         1 UO4       0.049200
     55 H20        515.0120   -32.9750   146.4870 ha         1 UO4       0.145000
     56 H21        517.8960   -29.5700   146.1190 hc         1 UO4       0.082700
     57 H22        520.7070   -28.9040   145.0220 hc         1 UO4       0.071950
     58 H23        520.0610   -28.4770   146.6670 hc         1 UO4       0.071950
     59 H24        518.8550   -27.5950   143.9420 hc         1 UO4       0.071950
     60 H25        518.1920   -27.1650   145.5790 hc         1 UO4       0.071950
@<TRIPOS>BOND
     1     1     2 ar  
     2     1     6 ar  
     3     1    36 1   
     4     2     3 ar  
     5     2    37 1   
     6     3     4 ar  
     7     3    38 1   
     8     4     5 ar  
     9     4    39 1   
    10     5     6 ar  
    11     5     7 1   
    12     6     8 1   
    13     7     9 1   
    14     8    10 1   
    15     9    20 ar  
    16     9    24 ar  
    17    10    11 1   
    18    10    40 1   
    19    10    41 1   
    20    11    12 1   
    21    11    42 1   
    22    11    43 1   
    23    12    13 1   
    24    12    17 1   
    25    13    14 1   
    26    13    18 2   
    27    14    15 1   
    28    14    44 1   
    29    15    16 1   
    30    15    19 2   
    31    16    17 2   
    32    16    45 1   
    33    17    46 1   
    34    20    21 ar  
    35    20    25 1   
    36    21    22 ar  
    37    21    26 ar  
    38    22    23 ar  
    39    22    27 ar  
    40    23    24 ar  
    41    23    28 1   
    42    24    47 1   
    43    25    48 1   
    44    25    49 1   
    45    25    50 1   
    46    26    29 ar  
    47    26    51 1   
    48    27    30 ar  
    49    27    52 1   
    50    28    33 1   
    51    28    53 1   
    52    28    54 1   
    53    29    30 ar  
    54    29    31 1   
    55    30    55 1   
    56    31    32 3   
    57    33    34 1   
    58    33    35 1   
    59    33    56 1   
    60    34    35 1   
    61    34    57 1   
    62    34    58 1   
    63    35    59 1   
    64    35    60 1   
@<TRIPOS>SUBSTRUCTURE
     1 UO4         1 TEMP              0 ****  ****    0 ROOT
