@<TRIPOS>MOLECULE
UO4
   60    64     1     0     0
SMALL
No Charge or Current Charge


@<TRIPOS>ATOM
      1 C00        523.5800   -32.1610   141.4110 ca         1 UO4      -0.188000
      2 C01        524.8220   -31.6540   141.8300 ca         1 UO4      -0.073000
      3 C02        525.1980   -31.7360   143.1800 ca         1 UO4      -0.133000
      4 C03        524.3310   -32.3250   144.1140 ca         1 UO4      -0.078000
      5 C04        523.0800   -32.8220   143.7100 ca         1 UO4       0.066100
      6 C05        522.6940   -32.7520   142.3440 ca         1 UO4       0.121100
      7 O0A        522.2910   -33.4200   144.6730 os         1 UO4      -0.239200
      8 O0B        521.4640   -33.2560   141.9520 os         1 UO4      -0.340100
      9 C0C        520.9500   -33.1510   144.8700 ca         1 UO4       0.150100
     10 C0D        521.0180   -33.2240   140.5820 c3         1 UO4       0.138600
     11 C0E        519.5460   -33.6860   140.5160 c3         1 UO4       0.109000
     12 N0H        519.2960   -35.0330   141.0890 n          1 UO4      -0.304000
     13 C0K        519.4070   -36.1640   140.2520 c          1 UO4       0.617000
     14 N0M        519.1170   -37.3640   140.8230 ns         1 UO4      -0.466500
     15 C0N        518.7200   -37.6120   142.0970 c          1 UO4       0.590200
     16 C0O        518.6080   -36.4090   142.9160 cc         1 UO4      -0.382200
     17 C0P        518.8950   -35.1610   142.4150 cd         1 UO4       0.018600
     18 O0Q        519.7470   -36.0990   139.0810 o          1 UO4      -0.566000
     19 O0S        518.4820   -38.7370   142.4970 o          1 UO4      -0.527000
     20 C0V        520.1370   -34.1120   145.5140 ca         1 UO4      -0.097300
     21 C0W        518.7590   -33.8270   145.7190 ca         1 UO4      -0.020000
     22 C0X        518.2110   -32.5900   145.2810 ca         1 UO4      -0.047000
     23 C0Y        519.0450   -31.6310   144.6480 ca         1 UO4      -0.049300
     24 C0Z        520.4070   -31.9200   144.4680 ca         1 UO4      -0.150000
     25 C10        520.7470   -35.4440   145.9780 c3         1 UO4      -0.043800
     26 C11        517.9120   -34.7700   146.3530 ca         1 UO4      -0.065000
     27 C12        516.8340   -32.3330   145.4920 ca         1 UO4      -0.094000
     28 C13        518.5380   -30.2750   144.1500 c3         1 UO4      -0.004100
     29 C15        516.5460   -34.5020   146.5500 ca         1 UO4      -0.008000
     30 C16        516.0110   -33.2800   146.1180 ca         1 UO4      -0.090000
     31 C18        515.7030   -35.4730   147.1920 cg         1 UO4       0.320000
     32 N1B        515.0260   -36.2690   147.7130 n1         1 UO4      -0.446000
     33 C1C        518.4440   -29.2460   145.2740 cx         1 UO4      -0.124700
     34 C1G        519.6650   -28.4740   145.7180 cx         1 UO4      -0.129400
     35 C1H        518.5480   -27.7670   144.9850 cx         1 UO4      -0.129400
     36 H1         523.3280   -32.0870   140.3580 ha         1 UO4       0.121000
     37 H2         525.4970   -31.2010   141.1070 ha         1 UO4       0.119000
     38 H3         526.1630   -31.3490   143.5010 ha         1 UO4       0.124000
     39 H4         524.6270   -32.3960   145.1580 ha         1 UO4       0.134000
     40 H5         521.6370   -33.8810   139.9590 h1         1 UO4       0.057200
     41 H6         521.0740   -32.2050   140.1780 h1         1 UO4       0.057200
     42 H7         518.9290   -32.9530   141.0520 h1         1 UO4       0.073700
     43 H8         519.2150   -33.6650   139.4700 h1         1 UO4       0.073700
     44 H9         519.2030   -38.1680   140.2230 hn         1 UO4       0.342500
     45 H10        518.2830   -36.5630   143.9370 ha         1 UO4       0.225000
     46 H11        518.8320   -34.2270   142.9680 h4         1 UO4       0.213000
     47 H12        521.0490   -31.1770   144.0020 ha         1 UO4       0.125000
     48 H13        520.6360   -35.5690   147.0620 hc         1 UO4       0.051367
     49 H14        520.2580   -36.2930   145.4870 hc         1 UO4       0.051367
     50 H15        521.8170   -35.5340   145.7620 hc         1 UO4       0.051367
     51 H16        518.2970   -35.7250   146.7010 ha         1 UO4       0.132000
     52 H17        516.3770   -31.3990   145.1810 ha         1 UO4       0.120000
     53 H18        519.2070   -29.8970   143.3670 hc         1 UO4       0.049200
     54 H19        517.5680   -30.3770   143.6500 hc         1 UO4       0.049200
     55 H20        514.9560   -33.0600   146.2670 ha         1 UO4       0.127000
     56 H21        517.7480   -29.5420   146.0560 hc         1 UO4       0.082700
     57 H22        520.5970   -28.6380   145.1830 hc         1 UO4       0.071950
     58 H23        519.7790   -28.2780   146.7810 hc         1 UO4       0.071950
     59 H24        518.7330   -27.4550   143.9600 hc         1 UO4       0.071950
     60 H25        517.9130   -27.0940   145.5570 hc         1 UO4       0.071950
@<TRIPOS>BOND
     1     1     2 ar  
     2     1     6 ar  
     3     1    36 1   
     4     2     3 ar  
     5     2    37 1   
     6     3     4 ar  
     7     3    38 1   
     8     4     5 ar  
     9     4    39 1   
    10     5     6 ar  
    11     5     7 1   
    12     6     8 1   
    13     7     9 1   
    14     8    10 1   
    15     9    20 ar  
    16     9    24 ar  
    17    10    11 1   
    18    10    40 1   
    19    10    41 1   
    20    11    12 1   
    21    11    42 1   
    22    11    43 1   
    23    12    13 1   
    24    12    17 1   
    25    13    14 1   
    26    13    18 2   
    27    14    15 1   
    28    14    44 1   
    29    15    16 1   
    30    15    19 2   
    31    16    17 2   
    32    16    45 1   
    33    17    46 1   
    34    20    21 ar  
    35    20    25 1   
    36    21    22 ar  
    37    21    26 ar  
    38    22    23 ar  
    39    22    27 ar  
    40    23    24 ar  
    41    23    28 1   
    42    24    47 1   
    43    25    48 1   
    44    25    49 1   
    45    25    50 1   
    46    26    29 ar  
    47    26    51 1   
    48    27    30 ar  
    49    27    52 1   
    50    28    33 1   
    51    28    53 1   
    52    28    54 1   
    53    29    30 ar  
    54    29    31 1   
    55    30    55 1   
    56    31    32 3   
    57    33    34 1   
    58    33    35 1   
    59    33    56 1   
    60    34    35 1   
    61    34    57 1   
    62    34    58 1   
    63    35    59 1   
    64    35    60 1   
@<TRIPOS>SUBSTRUCTURE
     1 UO4         1 TEMP              0 ****  ****    0 ROOT
