@<TRIPOS>MOLECULE
UO5
   68    73     1     0     0
SMALL
bcc


@<TRIPOS>ATOM
      1 C2          10.1270     6.4120    45.1390 ca         1 UO5      -0.284200
      2 C3          11.3170     5.8040    44.7600 ca         1 UO5       0.494200
      3 N4          12.1410     6.3330    43.8830 nb         1 UO5      -0.766000
      4 C5          11.7830     7.5230    43.3720 ca         1 UO5       0.918900
      5 C7          12.3840     9.2960    41.7580 c6         1 UO5       0.246500
      6 C8          13.7010     9.9380    41.3390 c6         1 UO5      -0.132400
      7 C11         11.3880    10.3290    39.7100 c6         1 UO5       0.134400
      8 C12         11.5220     9.0480    40.5190 c6         1 UO5      -0.132400
      9 C14          9.8190     7.6320    44.5400 cp         1 UO5       0.567800
     10 C15          8.5960     8.4080    44.8370 cp         1 UO5      -0.170500
     11 C16          8.7160     9.7800    45.0870 ca         1 UO5      -0.064000
     12 C19          5.0080    10.5310    45.6430 c5         1 UO5       0.140300
     13 C22          2.4920     9.2010    47.2000 c          1 UO5       0.644100
     14 C25          1.0000     9.3700    49.0850 c3         1 UO5       0.095500
     15 C26          1.1040    10.7790    49.7250 c3         1 UO5      -0.059100
     16 C27          1.8880    11.7450    48.8830 ca         1 UO5      -0.075300
     17 C28          3.1110    12.2500    49.3080 ca         1 UO5      -0.120000
     18 C31          2.1200    13.0080    46.8420 ca         1 UO5      -0.120000
     19 C35          4.8120     8.2390    45.1580 c          1 UO5       0.734100
     20 C37          6.2420     8.6120    45.0980 ca         1 UO5      -0.164600
     21 C38          7.3380     7.8130    44.8350 ca         1 UO5      -0.023000
     22 CL1          9.1500     5.6680    46.3520 cl         1 UO5      -0.072400
     23 N6          12.6430     8.0880    42.5090 nu         1 UO5      -0.858900
     24 C9          13.4320    11.1620    40.4770 c6         1 UO5       0.134400
     25 O10         12.6460    10.8550    39.3480 os         1 UO5      -0.401600
     26 N13         10.6580     8.1740    43.6680 nb         1 UO5      -0.780000
     27 C17          7.6090    10.5670    45.3700 ca         1 UO5      -0.131000
     28 C18          6.3640     9.9630    45.3770 ca         1 UO5      -0.062300
     29 N20          4.1440     9.3910    45.4160 n          1 UO5      -0.467800
     30 O23          3.4050     8.8220    47.9130 o          1 UO5      -0.580100
     31 N24          1.2300     9.3870    47.6530 n          1 UO5      -0.459800
     32 C29          3.8370    13.1300    48.5140 ca         1 UO5      -0.130500
     33 C30          3.3400    13.5120    47.2780 ca         1 UO5      -0.130500
     34 C32          1.3870    12.1290    47.6300 ca         1 UO5      -0.075300
     35 C33          0.0840    11.5500    47.1560 c3         1 UO5      -0.059100
     36 C34          0.1940    10.0310    46.8710 c3         1 UO5       0.095500
     37 O36          4.3180     7.1380    44.9960 o          1 UO5      -0.608500
     38 H39         11.6030     4.8530    45.1960 h4         1 UO5       0.035100
     39 H41         11.8550     9.9930    42.4140 h1         1 UO5       0.077700
     40 H42         14.3030     9.2170    40.7760 hc         1 UO5       0.058700
     41 H43         14.2810    10.2330    42.2170 hc         1 UO5       0.058700
     42 H47         10.8170    11.0700    40.2900 h1         1 UO5       0.047700
     43 H46         10.8390    10.1450    38.7860 h1         1 UO5       0.047700
     44 H48         10.5300     8.6940    40.8090 hc         1 UO5       0.058700
     45 H49         11.9850     8.2680    39.9070 hc         1 UO5       0.058700
     46 H50          9.6990    10.2330    45.0700 ha         1 UO5       0.144000
     47 H53          4.9160    10.9060    46.6670 h1         1 UO5       0.067700
     48 H52          4.7600    11.3560    44.9690 h1         1 UO5       0.067700
     49 H55          2.3700    10.4200    45.3950 h1         1 UO5       0.075700
     50 H54          2.2190     8.6960    45.1150 h1         1 UO5       0.075700
     51 H56          1.7220     8.7000    49.5420 h1         1 UO5       0.058700
     52 H58          1.5600    10.6850    50.7120 hc         1 UO5       0.052700
     53 H59          0.0990    11.1760    49.8920 hc         1 UO5       0.052700
     54 H60          3.5060    11.9490    50.2720 ha         1 UO5       0.131500
     55 H63          1.7330    13.2970    45.8710 ha         1 UO5       0.131500
     56 H68          7.2100     6.7620    44.6110 ha         1 UO5       0.162000
     57 H40         13.4290     7.5210    42.2310 hn         1 UO5       0.449800
     58 H44         14.3680    11.5850    40.1110 h1         1 UO5       0.047700
     59 H45         12.9390    11.9340    41.0870 h1         1 UO5       0.047700
     60 H51          7.7270    11.6230    45.5750 ha         1 UO5       0.139000
     61 H61          4.7880    13.5140    48.8620 ha         1 UO5       0.132000
     62 H62          3.8980    14.1950    46.6500 ha         1 UO5       0.132000
     63 H64         -0.2490    12.0550    46.2490 hc         1 UO5       0.052700
     64 H65         -0.6920    11.7220    47.9060 hc         1 UO5       0.052700
     65 H66         -0.7550     9.5430    47.0980 h1         1 UO5       0.058700
     66 H67          0.3720     9.8600    45.8130 h1         1 UO5       0.058700
     67 C21          2.7480     9.4460    45.7080 c3         1 UO5       0.031000
     68 H57          0.0100     8.9510    49.2660 h1         1 UO5       0.058700
@<TRIPOS>BOND
     1     1     2 ar  
     2     1     9 ar  
     3     1    22 1   
     4     2     3 ar  
     5     2    38 1   
     6     3     4 ar  
     7     4    23 1   
     8     4    26 ar  
     9     5     6 1   
    10     5     8 1   
    11     5    23 1   
    12     5    39 1   
    13     6    24 1   
    14     6    40 1   
    15     6    41 1   
    16     7     8 1   
    17     7    25 1   
    18     7    42 1   
    19     7    43 1   
    20     8    44 1   
    21     8    45 1   
    22     9    10 1   
    23     9    26 ar  
    24    10    11 ar  
    25    10    21 ar  
    26    11    27 ar  
    27    11    46 1   
    28    12    28 1   
    29    12    29 1   
    30    12    47 1   
    31    12    48 1   
    32    13    30 2   
    33    13    31 1   
    34    13    67 1   
    35    14    15 1   
    36    14    31 1   
    37    14    51 1   
    38    14    68 1   
    39    15    16 1   
    40    15    52 1   
    41    15    53 1   
    42    16    17 ar  
    43    16    34 ar  
    44    17    32 ar  
    45    17    54 1   
    46    18    33 ar  
    47    18    34 ar  
    48    18    55 1   
    49    19    20 1   
    50    19    29 1   
    51    19    37 2   
    52    20    21 ar  
    53    20    28 ar  
    54    21    56 1   
    55    23    57 1   
    56    24    25 1   
    57    24    58 1   
    58    24    59 1   
    59    27    28 ar  
    60    27    60 1   
    61    29    67 1   
    62    31    36 1   
    63    32    33 ar  
    64    32    61 1   
    65    33    62 1   
    66    34    35 1   
    67    35    36 1   
    68    35    63 1   
    69    35    64 1   
    70    36    65 1   
    71    36    66 1   
    72    49    67 1   
    73    50    67 1   
@<TRIPOS>SUBSTRUCTURE
     1 UO5         1 TEMP              0 ****  ****    0 ROOT
