@<TRIPOS>MOLECULE
UO5
   68    73     1     0     0
SMALL
No Charge or Current Charge


@<TRIPOS>ATOM
      1 C2          10.4840     6.0010    44.6340 ca         1 UO5      -0.062000
      2 C3          11.5160     5.1920    44.1250 ca         1 UO5       0.165900
      3 N4          12.3500     5.6280    43.1620 nb         1 UO5      -0.240000
      4 C5          12.1480     6.8790    42.7190 ca         1 UO5       0.392900
      5 C7          12.9660     8.5850    41.0080 c6         1 UO5       0.246500
      6 C8          14.3440     8.8790    40.3710 c6         1 UO5      -0.132400
      7 C11         11.9050     9.8050    39.0540 c6         1 UO5       0.157600
      8 C12         11.8730     8.5210    39.9140 c6         1 UO5      -0.132400
      9 C14         10.3420     7.3080    44.0890 cp         1 UO5       0.239500
     10 C15          9.2930     8.2890    44.5150 cp         1 UO5      -0.170500
     11 C16          9.6300     9.6570    44.7460 ca         1 UO5      -0.046000
     12 C19          6.1210    11.0150    45.6920 c5         1 UO5       0.140300
     13 C22          3.2240     9.8540    47.4310 c          1 UO5       0.577100
     14 C25          1.5230     9.8600    49.2690 c3         1 UO5       0.095500
     15 C26          0.1050    10.2990    49.6940 c3         1 UO5      -0.059100
     16 C27         -0.1210    11.8140    49.6410 ca         1 UO5      -0.075300
     17 C28         -0.5620    12.4380    50.8300 ca         1 UO5      -0.102000
     18 C31         -0.1660    13.9990    48.5490 ca         1 UO5      -0.102000
     19 C35          5.5430     8.7000    45.2720 c          1 UO5       0.591600
     20 C37          6.9900     8.8590    45.0520 ca         1 UO5      -0.164600
     21 C38          7.9340     7.8990    44.6650 ca         1 UO5      -0.005000
     22 Cl1          9.4770     5.3750    45.9430 cl         1 UO5      -0.164000
     23 N6          13.0310     7.3090    41.7370 nu         1 UO5      -0.914100
     24 C9          14.2630    10.1480    39.4940 c6         1 UO5       0.157600
     25 O10         13.2260     9.9890    38.5010 os         1 UO5      -0.448000
     26 N13         11.2000     7.7350    43.1410 nb         1 UO5      -0.254000
     27 C17          8.6560    10.6000    45.1350 ca         1 UO5      -0.113000
     28 C18          7.3290    10.1780    45.2880 ca         1 UO5      -0.062300
     29 N20          5.0570     9.9650    45.6340 n          1 UO5      -0.400800
     30 O23          4.0440     9.3980    48.2220 o          1 UO5      -0.580100
     31 N24          1.8940    10.1120    47.8560 n          1 UO5      -0.392800
     32 C29         -0.7980    13.8190    50.8810 ca         1 UO5      -0.112500
     33 C30         -0.5990    14.6010    49.7380 ca         1 UO5      -0.112500
     34 C32          0.0780    12.6100    48.4740 ca         1 UO5      -0.075300
     35 C33          0.5420    12.0970    47.1000 c3         1 UO5      -0.059100
     36 C34          0.8370    10.5960    46.9350 c3         1 UO5       0.095500
     37 O36          4.8880     7.6730    45.1590 o          1 UO5      -0.533000
     38 H39         11.6850     4.1850    44.5010 h4         1 UO5       0.035100
     39 H41         12.7330     9.4120    41.6990 h1         1 UO5       0.077700
     40 H42         14.6700     8.0320    39.7530 hc         1 UO5       0.058700
     41 H43         15.1020     9.0160    41.1540 hc         1 UO5       0.058700
     42 H47         11.6390    10.6810    39.6630 h1         1 UO5       0.047700
     43 H46         11.1800     9.7260    38.2320 h1         1 UO5       0.047700
     44 H48         10.8800     8.4060    40.3680 hc         1 UO5       0.058700
     45 H49         12.0300     7.6460    39.2690 hc         1 UO5       0.058700
     46 H50         10.6600     9.9860    44.6290 ha         1 UO5       0.126000
     47 H53          6.2340    11.4290    46.7030 h1         1 UO5       0.067700
     48 H52          5.9340    11.8300    44.9800 h1         1 UO5       0.067700
     49 H55          3.3700    11.2300    45.7780 h1         1 UO5       0.075700
     50 H54          3.0090     9.5600    45.3040 h1         1 UO5       0.075700
     51 H56          2.2470    10.3720    49.9160 h1         1 UO5       0.058700
     52 H58         -0.0400     9.9370    50.7180 hc         1 UO5       0.052700
     53 H59         -0.6570     9.7720    49.1090 hc         1 UO5       0.052700
     54 H60         -0.7250    11.8490    51.7290 ha         1 UO5       0.113500
     55 H63         -0.0170    14.6210    47.6680 ha         1 UO5       0.113500
     56 H68          7.6190     6.8760    44.4690 ha         1 UO5       0.144000
     57 H40         13.7290     6.6210    41.4520 hn         1 UO5       0.505000
     58 H44         15.2230    10.3170    38.9860 h1         1 UO5       0.047700
     59 H45         14.0430    11.0310    40.1130 h1         1 UO5       0.047700
     60 H51          8.9320    11.6370    45.3120 ha         1 UO5       0.121000
     61 H61         -1.1360    14.2810    51.8060 ha         1 UO5       0.114000
     62 H62         -0.7800    15.6740    49.7720 ha         1 UO5       0.114000
     63 H64          1.4480    12.6440    46.8110 hc         1 UO5       0.052700
     64 H65         -0.2140    12.3650    46.3520 hc         1 UO5       0.052700
     65 H66         -0.0840    10.0200    47.0840 h1         1 UO5       0.058700
     66 H67          1.1150    10.4130    45.8910 h1         1 UO5       0.058700
     67 C21          3.6250    10.1800    45.9670 c3         1 UO5       0.031000
     68 H57          1.6210     8.7820    49.4580 h1         1 UO5       0.058700
@<TRIPOS>BOND
     1     1     2 ar  
     2     1     9 ar  
     3     1    22 1   
     4     2     3 ar  
     5     2    38 1   
     6     3     4 ar  
     7     4    23 1   
     8     4    26 ar  
     9     5     6 1   
    10     5     8 1   
    11     5    23 1   
    12     5    39 1   
    13     6    24 1   
    14     6    40 1   
    15     6    41 1   
    16     7     8 1   
    17     7    25 1   
    18     7    42 1   
    19     7    43 1   
    20     8    44 1   
    21     8    45 1   
    22     9    10 1   
    23     9    26 ar  
    24    10    11 ar  
    25    10    21 ar  
    26    11    27 ar  
    27    11    46 1   
    28    12    28 1   
    29    12    29 1   
    30    12    47 1   
    31    12    48 1   
    32    13    30 2   
    33    13    31 1   
    34    13    67 1   
    35    14    15 1   
    36    14    31 1   
    37    14    51 1   
    38    14    68 1   
    39    15    16 1   
    40    15    52 1   
    41    15    53 1   
    42    16    17 ar  
    43    16    34 ar  
    44    17    32 ar  
    45    17    54 1   
    46    18    33 ar  
    47    18    34 ar  
    48    18    55 1   
    49    19    20 1   
    50    19    29 1   
    51    19    37 2   
    52    20    21 ar  
    53    20    28 ar  
    54    21    56 1   
    55    23    57 1   
    56    24    25 1   
    57    24    58 1   
    58    24    59 1   
    59    27    28 ar  
    60    27    60 1   
    61    29    67 1   
    62    31    36 1   
    63    32    33 ar  
    64    32    61 1   
    65    33    62 1   
    66    34    35 1   
    67    35    36 1   
    68    35    63 1   
    69    35    64 1   
    70    36    65 1   
    71    36    66 1   
    72    49    67 1   
    73    50    67 1   
@<TRIPOS>SUBSTRUCTURE
     1 UO5         1 TEMP              0 ****  ****    0 ROOT
