@<TRIPOS>MOLECULE
UO8
   32    34     1     0     0
SMALL
No Charge or Current Charge


@<TRIPOS>ATOM
      1 C01         51.5450    67.3550   286.7170 c6         1 UO8      -0.080400
      2 C02         50.6320    66.4270   285.8630 c6         1 UO8      -0.074400
      3 C03         51.0530    64.9300   285.9160 c6         1 UO8      -0.089400
      4 C04         52.5800    64.7780   286.1460 c6         1 UO8       0.084300
      5 C05         53.0270    65.4100   287.5010 c6         1 UO8      -0.089400
      6 C06         52.1370    66.6100   287.9370 c6         1 UO8      -0.074400
      7 C08         53.9400    62.8860   285.0840 cc         1 UO8       0.396400
      8 C10         53.3270    61.1730   286.2760 cd         1 UO8       0.180500
      9 C11         52.6650    62.2670   286.7240 cc         1 UO8       0.193000
     10 C13         51.5870    61.0280   288.3720 cc         1 UO8       0.887100
     11 C15         53.1030    59.8990   286.9150 cs         1 UO8       0.438300
     12 N07         53.0300    63.3720   286.0130 na         1 UO8      -0.190500
     13 N09         54.1410    61.5680   285.2180 nd         1 UO8      -0.572000
     14 N12         51.7850    62.2380   287.8030 na         1 UO8      -0.906200
     15 N14         52.1850    59.9430   287.9790 nd         1 UO8      -0.713100
     16 N17         50.7420    61.0010   289.3530 nv         1 UO8      -1.061200
     17 S16         53.8510    58.4710   286.4580 s          1 UO8      -0.484400
     18 H1          52.3660    67.7390   286.0960 hc         1 UO8       0.047200
     19 H2          50.9760    68.2340   287.0490 hc         1 UO8       0.047200
     20 H3          50.6420    66.7790   284.8220 hc         1 UO8       0.046950
     21 H4          49.5900    66.5170   286.2010 hc         1 UO8       0.046950
     22 H5          50.5000    64.4290   286.7220 hc         1 UO8       0.051450
     23 H6          50.7550    64.4300   284.9840 hc         1 UO8       0.051450
     24 H7          53.0720    65.3490   285.3450 h1         1 UO8       0.074700
     25 H8          53.0270    64.6630   288.3060 hc         1 UO8       0.051450
     26 H9          54.0710    65.7400   287.4050 hc         1 UO8       0.051450
     27 H10         52.7220    67.3020   288.5590 hc         1 UO8       0.046950
     28 H11         51.3150    66.2480   288.5710 hc         1 UO8       0.046950
     29 H12         54.4150    63.5300   284.3540 h5         1 UO8       0.062100
     30 H13         51.3390    63.0580   288.1810 hn         1 UO8       0.503000
     31 H14         50.5170    60.0530   289.6160 hn         1 UO8       0.513000
     32 H15         49.9360    61.5940   289.2270 hn         1 UO8       0.513000
@<TRIPOS>BOND
     1     1     2 1   
     2     1     6 1   
     3     1    18 1   
     4     1    19 1   
     5     2     3 1   
     6     2    20 1   
     7     2    21 1   
     8     3     4 1   
     9     3    22 1   
    10     3    23 1   
    11     4     5 1   
    12     4    12 1   
    13     4    24 1   
    14     5     6 1   
    15     5    25 1   
    16     5    26 1   
    17     6    27 1   
    18     6    28 1   
    19     7    12 1   
    20     7    13 2   
    21     7    29 1   
    22     8     9 2   
    23     8    11 1   
    24     8    13 1   
    25     9    12 1   
    26     9    14 1   
    27    10    14 1   
    28    10    15 2   
    29    10    16 1   
    30    11    15 1   
    31    11    17 2   
    32    14    30 1   
    33    16    31 1   
    34    16    32 1   
@<TRIPOS>SUBSTRUCTURE
     1 UO8         1 TEMP              0 ****  ****    0 ROOT
