@<TRIPOS>MOLECULE
UO8
   32    34     1     0     0
SMALL
abcg2


@<TRIPOS>ATOM
      1 C01         51.6270    67.3530   286.6300 c6         1 UO8      -0.080400
      2 C02         50.7270    66.4580   285.7630 c6         1 UO8      -0.074400
      3 C03         51.0460    64.9660   285.9350 c6         1 UO8      -0.089400
      4 C04         52.5390    64.7940   286.1930 c6         1 UO8       0.084300
      5 C05         52.9560    65.4140   287.5370 c6         1 UO8      -0.089400
      6 C06         52.0730    66.6190   287.8880 c6         1 UO8      -0.074400
      7 C08         53.9020    62.9440   285.1680 cc         1 UO8       0.396400
      8 C10         53.3090    61.2430   286.2760 cd         1 UO8       0.180500
      9 C11         52.6070    62.3170   286.7780 cc         1 UO8       0.193000
     10 C13         51.5740    60.9290   288.3170 cc         1 UO8       0.887100
     11 C15         53.0970    59.9490   286.8370 cs         1 UO8       0.438300
     12 N07         52.9780    63.4070   286.0740 na         1 UO8      -0.190500
     13 N09         54.1210    61.6700   285.2590 nd         1 UO8      -0.572000
     14 N12         51.7250    62.1830   287.8010 na         1 UO8      -0.906200
     15 N14         52.2150    59.8750   287.8620 nd         1 UO8      -0.713100
     16 N17         50.7300    60.7890   289.3390 nv         1 UO8      -1.061200
     17 S16         53.8820    58.5790   286.2760 s          1 UO8      -0.484400
     18 H1          52.5100    67.6620   286.0630 hc         1 UO8       0.047200
     19 H2          51.0990    68.2720   286.8900 hc         1 UO8       0.047200
     20 H3          50.8330    66.7370   284.7130 hc         1 UO8       0.046950
     21 H4          49.6790    66.6210   286.0220 hc         1 UO8       0.046950
     22 H5          50.4660    64.5610   286.7690 hc         1 UO8       0.051450
     23 H6          50.7490    64.4070   285.0460 hc         1 UO8       0.051450
     24 H7          53.0710    65.3100   285.3900 h1         1 UO8       0.074700
     25 H8          52.8960    64.6750   288.3390 hc         1 UO8       0.051450
     26 H9          54.0040    65.7110   287.4720 hc         1 UO8       0.051450
     27 H10         52.6170    67.2870   288.5570 hc         1 UO8       0.046950
     28 H11         51.1910    66.2840   288.4410 hc         1 UO8       0.046950
     29 H12         54.3700    63.6210   284.4690 h5         1 UO8       0.062100
     30 H13         51.1990    62.9610   288.1720 hn         1 UO8       0.503000
     31 H14         50.5840    59.8700   289.7210 hn         1 UO8       0.513000
     32 H15         50.1970    61.5520   289.7190 hn         1 UO8       0.513000
@<TRIPOS>BOND
     1     1     2 1   
     2     1     6 1   
     3     1    18 1   
     4     1    19 1   
     5     2     3 1   
     6     2    20 1   
     7     2    21 1   
     8     3     4 1   
     9     3    22 1   
    10     3    23 1   
    11     4     5 1   
    12     4    12 1   
    13     4    24 1   
    14     5     6 1   
    15     5    25 1   
    16     5    26 1   
    17     6    27 1   
    18     6    28 1   
    19     7    12 1   
    20     7    13 2   
    21     7    29 1   
    22     8     9 2   
    23     8    11 1   
    24     8    13 1   
    25     9    12 1   
    26     9    14 1   
    27    10    14 1   
    28    10    15 2   
    29    10    16 1   
    30    11    15 1   
    31    11    17 2   
    32    14    30 1   
    33    16    31 1   
    34    16    32 1   
@<TRIPOS>SUBSTRUCTURE
     1 UO8         1 TEMP              0 ****  ****    0 ROOT
