@<TRIPOS>MOLECULE
UOC
   34    33     1     0     0
SMALL
No Charge or Current Charge


@<TRIPOS>ATOM
      1 CCG          6.7670    -0.1570     0.2540 c3         1 UOC      -0.088100
      2 CCF          5.4180     0.5850     0.3030 c3         1 UOC      -0.074400
      3 CCE          4.2080    -0.3420     0.0520 c3         1 UOC      -0.075400
      4 CCD          2.8560     0.4020     0.1010 c3         1 UOC      -0.074400
      5 CCC          1.6460    -0.5250    -0.1500 c3         1 UOC      -0.074400
      6 CCB          0.2940     0.2190    -0.1010 c3         1 UOC      -0.074400
      7 CCA         -0.9150    -0.7080    -0.3520 c3         1 UOC      -0.076400
      8 CBZ         -2.2680     0.0360    -0.3030 c3         1 UOC      -0.065400
      9 CBY         -3.4770    -0.8960    -0.5550 c3         1 UOC      -0.182400
     10 CBX         -4.8030    -0.1250    -0.4900 c          1 UOC       0.571100
     11 OCH         -5.2360     0.4940    -1.4540 o          1 UOC      -0.521100
     12 CBW         -5.5410    -0.1410     0.8470 c3         1 UOC      -0.202100
     13 HCG          6.8060    -0.9430     1.0180 hc         1 UOC       0.031367
     14 HCGA         6.9200    -0.6200    -0.7280 hc         1 UOC       0.031367
     15 HCGB         7.5940     0.5400     0.4370 hc         1 UOC       0.031367
     16 HCF          5.3110     1.0660     1.2830 hc         1 UOC       0.036700
     17 HCFA         5.4240     1.3860    -0.4480 hc         1 UOC       0.036700
     18 HCE          4.3200    -0.8220    -0.9280 hc         1 UOC       0.036700
     19 HCEA         4.2070    -1.1420     0.8030 hc         1 UOC       0.036700
     20 HCD          2.7440     0.8830     1.0810 hc         1 UOC       0.037700
     21 HCDA         2.8580     1.2030    -0.6500 hc         1 UOC       0.037700
     22 HCC          1.7580    -1.0050    -1.1300 hc         1 UOC       0.036700
     23 HCCA         1.6440    -1.3250     0.6010 hc         1 UOC       0.036700
     24 HCB          0.1830     0.7000     0.8790 hc         1 UOC       0.040200
     25 HCBA         0.2960     1.0190    -0.8520 hc         1 UOC       0.040200
     26 HCA         -0.8030    -1.1890    -1.3320 hc         1 UOC       0.035200
     27 HCAA        -0.9170    -1.5080     0.3990 hc         1 UOC       0.035200
     28 HBZ         -2.3780     0.5180     0.6770 hc         1 UOC       0.052200
     29 HBZA        -2.2650     0.8360    -1.0540 hc         1 UOC       0.052200
     30 HBY         -3.3730    -1.3530    -1.5470 hc         1 UOC       0.058200
     31 HBYA        -3.4680    -1.6670     0.2250 hc         1 UOC       0.058200
     32 HBW         -5.7610    -1.1800     1.1170 hc         1 UOC       0.059700
     33 HBWA        -4.8500     0.1620     1.6410 hc         1 UOC       0.059700
     34 HBWB        -6.4490     0.4730     0.8380 hc         1 UOC       0.059700
@<TRIPOS>BOND
     1     1     2 1   
     2     1    13 1   
     3     1    14 1   
     4     1    15 1   
     5     2     3 1   
     6     2    16 1   
     7     2    17 1   
     8     3     4 1   
     9     3    18 1   
    10     3    19 1   
    11     4     5 1   
    12     4    20 1   
    13     4    21 1   
    14     5     6 1   
    15     5    22 1   
    16     5    23 1   
    17     6     7 1   
    18     6    24 1   
    19     6    25 1   
    20     7     8 1   
    21     7    26 1   
    22     7    27 1   
    23     8     9 1   
    24     8    28 1   
    25     8    29 1   
    26     9    10 1   
    27     9    30 1   
    28     9    31 1   
    29    10    11 2   
    30    10    12 1   
    31    12    32 1   
    32    12    33 1   
    33    12    34 1   
@<TRIPOS>SUBSTRUCTURE
     1 UOC         1 TEMP              0 ****  ****    0 ROOT
