@<TRIPOS>MOLECULE
UOC
   34    33     1     0     0
SMALL
bcc


@<TRIPOS>ATOM
      1 CCG          6.7550    -0.3170     0.0300 c3         1 UOC      -0.088100
      2 CCF          5.4750     0.5070     0.0350 c3         1 UOC      -0.074400
      3 CCE          4.2200    -0.3570     0.0290 c3         1 UOC      -0.075400
      4 CCD          2.9280     0.4500     0.0290 c3         1 UOC      -0.074400
      5 CCC          1.6780    -0.4220     0.0280 c3         1 UOC      -0.074400
      6 CCB          0.3820     0.3790     0.0060 c3         1 UOC      -0.074400
      7 CCA         -0.8620    -0.5010     0.0110 c3         1 UOC      -0.076400
      8 CBZ         -2.1600     0.2960    -0.0450 c3         1 UOC      -0.065400
      9 CBY         -3.3810    -0.6080    -0.0300 c3         1 UOC      -0.182400
     10 CBX         -4.7100     0.0930    -0.1290 c          1 UOC       0.571100
     11 OCH         -4.8040     1.2790    -0.3580 o          1 UOC      -0.521100
     12 CBW         -5.9200    -0.7740     0.0930 c3         1 UOC      -0.202100
     13 HCG          6.8090    -0.9640     0.9080 hc         1 UOC       0.031367
     14 HCGA         6.8060    -0.9580    -0.8530 hc         1 UOC       0.031367
     15 HCGB         7.6440     0.3150     0.0300 hc         1 UOC       0.031367
     16 HCF          5.4610     1.1600     0.9130 hc         1 UOC       0.036700
     17 HCFA         5.4620     1.1710    -0.8350 hc         1 UOC       0.036700
     18 HCE          4.2370    -1.0130    -0.8480 hc         1 UOC       0.036700
     19 HCEA         4.2340    -1.0210     0.9020 hc         1 UOC       0.036700
     20 HCD          2.9100     1.1090     0.9040 hc         1 UOC       0.037700
     21 HCDA         2.9110     1.1090    -0.8470 hc         1 UOC       0.037700
     22 HCC          1.7050    -1.0900    -0.8400 hc         1 UOC       0.036700
     23 HCCA         1.6890    -1.0720     0.9100 hc         1 UOC       0.036700
     24 HCB          0.3540     1.0520     0.8710 hc         1 UOC       0.040200
     25 HCBA         0.3680     1.0230    -0.8800 hc         1 UOC       0.040200
     26 HCA         -0.8210    -1.1890    -0.8420 hc         1 UOC       0.035200
     27 HCAA        -0.8570    -1.1320     0.9070 hc         1 UOC       0.035200
     28 HBZ         -2.2000     0.9860     0.8030 hc         1 UOC       0.052200
     29 HBZA        -2.1660     0.9150    -0.9460 hc         1 UOC       0.052200
     30 HBY         -3.3380    -1.3220    -0.8620 hc         1 UOC       0.058200
     31 HBYA        -3.3930    -1.2340     0.8700 hc         1 UOC       0.058200
     32 HBW         -5.7910    -1.7630    -0.3460 hc         1 UOC       0.059700
     33 HBWA        -6.0510    -0.9210     1.1680 hc         1 UOC       0.059700
     34 HBWB        -6.8230    -0.3120    -0.3010 hc         1 UOC       0.059700
@<TRIPOS>BOND
     1     1     2 1   
     2     1    13 1   
     3     1    14 1   
     4     1    15 1   
     5     2     3 1   
     6     2    16 1   
     7     2    17 1   
     8     3     4 1   
     9     3    18 1   
    10     3    19 1   
    11     4     5 1   
    12     4    20 1   
    13     4    21 1   
    14     5     6 1   
    15     5    22 1   
    16     5    23 1   
    17     6     7 1   
    18     6    24 1   
    19     6    25 1   
    20     7     8 1   
    21     7    26 1   
    22     7    27 1   
    23     8     9 1   
    24     8    28 1   
    25     8    29 1   
    26     9    10 1   
    27     9    30 1   
    28     9    31 1   
    29    10    11 2   
    30    10    12 1   
    31    12    32 1   
    32    12    33 1   
    33    12    34 1   
@<TRIPOS>SUBSTRUCTURE
     1 UOC         1 TEMP              0 ****  ****    0 ROOT
