@<TRIPOS>MOLECULE
UOE
   84    89     1     0     0
SMALL
abcg2


@<TRIPOS>ATOM
      1 C1           1.3390     9.9520    44.2350 c3         1 UOE      -0.099100
      2 C2           2.1600     8.7970    44.8000 c3         1 UOE       0.045700
      3 C5           5.6500     9.9940    44.7690 ca         1 UOE      -0.062300
      4 C6           6.7640    10.8150    44.7590 ca         1 UOE      -0.112000
      5 C7           8.0140    10.2230    44.8690 ca         1 UOE      -0.046000
      6 C8           8.1580     8.8380    45.0130 cp         1 UOE      -0.170500
      7 C10          5.7960     8.6220    44.8760 ca         1 UOE      -0.163600
      8 C11          4.4570     8.0020    44.8470 c          1 UOE       0.585600
      9 C13          9.5200     8.2690    45.1150 cp         1 UOE       0.238500
     10 C15         11.6350     8.1910    44.2490 ca         1 UOE       0.390900
     11 C19         11.3860     9.6000    39.8510 c6         1 UOE       0.157600
     12 C21         13.1190    11.0300    40.5000 c6         1 UOE       0.157600
     13 C22         13.4490    10.2040    41.7330 c6         1 UOE      -0.131900
     14 C24         11.2200     6.9170    46.0670 ca         1 UOE       0.165900
     15 C25          9.9090     7.3730    46.1070 ca         1 UOE      -0.061000
     16 C27          1.8240     8.5550    46.2770 c          1 UOE       0.585100
     17 C31         -0.9200     6.5980    47.7510 c3         1 UOE       0.149600
     18 C35         -0.8300    10.1260    50.4980 ca         1 UOE      -0.035000
     19 C36         -1.2840    11.1740    49.7260 ca         1 UOE      -0.229000
     20 C37         -1.2620    11.0350    48.3240 ca         1 UOE       0.625900
     21 C40         -2.0090    13.3450    47.9510 c6         1 UOE       0.217800
     22 N3           3.5750     9.0180    44.6620 n          1 UOE      -0.399800
     23 C4           4.1960    10.3290    44.6780 c5         1 UOE       0.144300
     24 C9           7.0330     8.0200    45.0120 ca         1 UOE      -0.005000
     25 O12          4.1740     6.8230    44.9670 o          1 UOE      -0.541000
     26 N14         10.3930     8.6730    44.2020 nb         1 UOE      -0.252000
     27 N16         12.5260     8.6220    43.3400 nu         1 UOE      -0.913100
     28 C17         12.2040     9.4620    42.2090 c6         1 UOE       0.244500
     29 C18         11.6030     8.6790    41.0410 c6         1 UOE      -0.131900
     30 O20         12.5790    10.2450    39.4610 os         1 UOE      -0.449000
     31 N23         12.0810     7.3040    45.1540 nb         1 UOE      -0.240000
     32 CL1          8.8710     6.8620    47.3880 cl         1 UOE      -0.165000
     33 O28          2.5680     8.9180    47.1730 o          1 UOE      -0.597100
     34 N29          0.6650     7.9190    46.4920 ns         1 UOE      -0.478900
     35 C30          0.1560     7.6740    47.8180 c3         1 UOE       0.069400
     36 C33         -0.3510     8.9260    48.5110 ca         1 UOE       0.394300
     37 C34         -0.3530     8.9690    49.8960 ca         1 UOE      -0.212000
     38 N38         -0.7810     9.9250    47.7570 nb         1 UOE      -0.740000
     39 N39         -1.7500    12.0000    47.4790 nh         1 UOE      -0.774300
     40 C41         -3.0480    14.0350    47.0860 c6         1 UOE       0.151300
     41 N42         -2.6620    14.0230    45.6940 n3         1 UOE      -0.712600
     42 C44         -2.5050    12.6550    45.2490 c6         1 UOE       0.151300
     43 C45         -1.4470    11.9340    46.0610 c6         1 UOE       0.217800
     44 H50          0.2800     9.6990    44.2530 hc         1 UOE       0.049367
     45 H49          1.4680    10.8710    44.8070 hc         1 UOE       0.049367
     46 H51          1.6150    10.1430    43.1990 hc         1 UOE       0.049367
     47 H46          1.9070     7.8950    44.2360 h1         1 UOE       0.081700
     48 H54          6.6740    11.8900    44.6680 ha         1 UOE       0.122000
     49 H55          8.8990    10.8450    44.8580 ha         1 UOE       0.126000
     50 H62         10.6130    10.3430    40.0960 h1         1 UOE       0.047450
     51 H61         11.0310     9.0360    38.9870 h1         1 UOE       0.047450
     52 H63         14.0190    11.5060    40.1070 h1         1 UOE       0.047450
     53 H64         12.4180    11.8320    40.7770 h1         1 UOE       0.047450
     54 H65         14.2410     9.4860    41.4980 hc         1 UOE       0.058450
     55 H66         13.8270    10.8610    42.5200 hc         1 UOE       0.058450
     56 H67         11.5730     6.2130    46.8150 h4         1 UOE       0.035100
     57 H69         -1.2660     6.3900    48.7710 h1         1 UOE       0.032700
     58 H70         -0.4640     5.6760    47.3690 h1         1 UOE       0.032700
     59 H74         -1.6380    12.0700    50.2120 ha         1 UOE       0.119000
     60 H75         -1.0850    13.9380    47.9600 h1         1 UOE       0.051950
     61 H76         -2.3960    13.3270    48.9670 h1         1 UOE       0.051950
     62 H79         -3.6640    15.7880    45.2060 h1         1 UOE       0.031700
     63 H81         -3.2760    14.7480    43.8350 h1         1 UOE       0.031700
     64 H80         -4.6220    14.3290    44.9070 h1         1 UOE       0.031700
     65 H53          3.9640    10.8990    43.7750 h1         1 UOE       0.068200
     66 H52          3.8680    10.9190    45.5380 h1         1 UOE       0.068200
     67 H56          7.1180     6.9440    45.0900 ha         1 UOE       0.143000
     68 H57         13.4150     8.1460    43.3380 hn         1 UOE       0.504000
     69 H58         11.4710    10.2020    42.5410 h1         1 UOE       0.078700
     70 H59         10.6510     8.2290    41.3330 hc         1 UOE       0.058450
     71 H60         12.2780     7.8640    40.7630 hc         1 UOE       0.058450
     72 H68          0.0560     7.7190    45.7130 hn         1 UOE       0.327500
     73 H47          0.9630     7.2620    48.4300 h1         1 UOE       0.082700
     74 H71         -2.5570     6.3150    46.7490 ho         1 UOE       0.444000
     75 H72          0.0220     8.1390    50.4810 ha         1 UOE       0.122000
     76 H78         -3.1460    15.0680    47.4270 h1         1 UOE       0.039450
     77 H77         -4.0270    13.5480    47.2420 h1         1 UOE       0.039450
     78 H82         -3.4550    12.0940    45.3120 h1         1 UOE       0.039450
     79 H83         -2.1970    12.6490    44.2010 h1         1 UOE       0.039450
     80 H84         -1.4030    10.8950    45.7480 h1         1 UOE       0.051950
     81 H85         -0.4630    12.3790    45.8580 h1         1 UOE       0.051950
     82 O32         -1.9600     7.0490    46.9180 oh         1 UOE      -0.655000
     83 H73         -0.8390    10.2180    51.5760 ha         1 UOE       0.113000
     84 C43         -3.6050    14.7500    44.8750 c3         1 UOE       0.151100
@<TRIPOS>BOND
     1     1     2 1   
     2     1    44 1   
     3     1    45 1   
     4     1    46 1   
     5     2    16 1   
     6     2    22 1   
     7     2    47 1   
     8     3     4 ar  
     9     3     7 ar  
    10     3    23 1   
    11     4     5 ar  
    12     4    48 1   
    13     5     6 ar  
    14     5    49 1   
    15     6     9 1   
    16     6    24 ar  
    17     7     8 1   
    18     7    24 ar  
    19     8    22 1   
    20     8    25 2   
    21     9    15 ar  
    22     9    26 ar  
    23    10    26 ar  
    24    10    27 1   
    25    10    31 ar  
    26    11    29 1   
    27    11    30 1   
    28    11    50 1   
    29    11    51 1   
    30    12    13 1   
    31    12    30 1   
    32    12    52 1   
    33    12    53 1   
    34    13    28 1   
    35    13    54 1   
    36    13    55 1   
    37    14    15 ar  
    38    14    31 ar  
    39    14    56 1   
    40    15    32 1   
    41    16    33 2   
    42    16    34 1   
    43    17    35 1   
    44    17    57 1   
    45    17    58 1   
    46    17    82 1   
    47    18    19 ar  
    48    18    37 ar  
    49    18    83 1   
    50    19    20 ar  
    51    19    59 1   
    52    20    38 ar  
    53    20    39 1   
    54    21    39 1   
    55    21    40 1   
    56    21    60 1   
    57    21    61 1   
    58    22    23 1   
    59    23    65 1   
    60    23    66 1   
    61    24    67 1   
    62    27    28 1   
    63    27    68 1   
    64    28    29 1   
    65    28    69 1   
    66    29    70 1   
    67    29    71 1   
    68    34    35 1   
    69    34    72 1   
    70    35    36 1   
    71    35    73 1   
    72    36    37 ar  
    73    36    38 ar  
    74    37    75 1   
    75    39    43 1   
    76    40    41 1   
    77    40    76 1   
    78    40    77 1   
    79    41    42 1   
    80    41    84 1   
    81    42    43 1   
    82    42    78 1   
    83    42    79 1   
    84    43    80 1   
    85    43    81 1   
    86    62    84 1   
    87    63    84 1   
    88    64    84 1   
    89    74    82 1   
@<TRIPOS>SUBSTRUCTURE
     1 UOE         1 TEMP              0 ****  ****    0 ROOT
