@<TRIPOS>MOLECULE
UOE
   84    89     1     0     0
SMALL
No Charge or Current Charge


@<TRIPOS>ATOM
      1 C1           1.4450    10.3300    44.6980 c3         1 UOE      -0.099100
      2 C2           2.2800     9.1210    45.1880 c3         1 UOE       0.045700
      3 C5           5.8820    10.1910    44.7790 ca         1 UOE      -0.062300
      4 C6           7.0300    10.9690    44.5750 ca         1 UOE      -0.112000
      5 C7           8.2940    10.3470    44.6430 ca         1 UOE      -0.046000
      6 C8           8.4270     8.9540    44.9220 cp         1 UOE      -0.170500
      7 C10          5.9990     8.8390    45.0350 ca         1 UOE      -0.163600
      8 C11          4.6500     8.2730    45.1950 c          1 UOE       0.585600
      9 C13          9.7800     8.3130    44.9750 cp         1 UOE       0.238500
     10 C15         11.8620     8.1050    44.0040 ca         1 UOE       0.390900
     11 C19         11.4860     9.3780    39.5000 c6         1 UOE       0.157600
     12 C21         13.5060    10.6370    39.9480 c6         1 UOE       0.157600
     13 C22         13.7850     9.8400    41.2430 c6         1 UOE      -0.131900
     14 C24         11.4940     6.8720    45.8930 ca         1 UOE       0.165900
     15 C25         10.1910     7.3950    45.9820 ca         1 UOE      -0.061000
     16 C27          1.8870     8.7510    46.6490 c          1 UOE       0.585100
     17 C31         -0.7100     6.3900    47.9120 c3         1 UOE       0.149600
     18 C35         -2.0610     9.6920    50.6190 ca         1 UOE      -0.035000
     19 C36         -2.4170    10.7900    49.8250 ca         1 UOE      -0.229000
     20 C37         -1.9600    10.8560    48.4950 ca         1 UOE       0.625900
     21 C40         -3.3780    12.8780    47.9530 c6         1 UOE       0.217800
     22 N3           3.7450     9.3310    45.0070 n          1 UOE      -0.399800
     23 C4           4.4280    10.6420    44.7500 c5         1 UOE       0.144300
     24 C9           7.2410     8.1930    45.1090 ca         1 UOE      -0.005000
     25 O12          4.3650     7.1060    45.4300 o          1 UOE      -0.541000
     26 N14         10.6410     8.6700    44.0010 nb         1 UOE      -0.252000
     27 N16         12.7530     8.4610    43.0000 nu         1 UOE      -0.913100
     28 C17         12.4580     9.3180    41.8410 c6         1 UOE       0.244500
     29 C18         11.6660     8.5230    40.7750 c6         1 UOE      -0.131900
     30 O20         12.7760     9.8120    39.0160 os         1 UOE      -0.449000
     31 N23         12.3330     7.2230    44.8990 nb         1 UOE      -0.240000
     32 Cl1          9.1790     6.9330    47.3530 cl         1 UOE      -0.165000
     33 O28          2.6000     8.9800    47.6200 o          1 UOE      -0.597100
     34 N29          0.6610     8.1350    46.7800 ns         1 UOE      -0.478900
     35 C30          0.0410     7.7380    48.0640 c3         1 UOE       0.069400
     36 C33         -0.8480     8.8270    48.7020 ca         1 UOE       0.394300
     37 C34         -1.2600     8.6980    50.0420 ca         1 UOE      -0.212000
     38 N38         -1.1940     9.8990    47.9460 nb         1 UOE      -0.740000
     39 N39         -2.2690    11.9240    47.6340 nh         1 UOE      -0.774300
     40 C41         -3.9070    13.6380    46.6930 c6         1 UOE       0.151300
     41 N42         -2.8200    14.3070    45.9170 n3         1 UOE      -0.712600
     42 C44         -1.7810    13.3010    45.5410 c6         1 UOE       0.151300
     43 C45         -1.2020    12.5360    46.7740 c6         1 UOE       0.217800
     44 H50          0.3720    10.1120    44.7610 hc         1 UOE       0.049367
     45 H49          1.6480    11.2190    45.3070 hc         1 UOE       0.049367
     46 H51          1.6770    10.5630    43.6520 hc         1 UOE       0.049367
     47 H46          1.9990     8.2580    44.5700 h1         1 UOE       0.081700
     48 H54          6.9480    12.0330    44.3670 ha         1 UOE       0.122000
     49 H55          9.1840    10.9540    44.4860 ha         1 UOE       0.126000
     50 H62         10.8610    10.2580    39.7120 h1         1 UOE       0.047450
     51 H61         10.9900     8.7870    38.7170 h1         1 UOE       0.047450
     52 H63         14.4540    10.9480    39.4860 h1         1 UOE       0.047450
     53 H64         12.9210    11.5420    40.1710 h1         1 UOE       0.047450
     54 H65         14.4590     9.0040    41.0150 hc         1 UOE       0.058450
     55 H66         14.3020    10.4810    41.9690 hc         1 UOE       0.058450
     56 H67         11.8750     6.1700    46.6330 h4         1 UOE       0.035100
     57 H69         -1.1980     6.1320    48.8610 h1         1 UOE       0.032700
     58 H70          0.0270     5.6040    47.7000 h1         1 UOE       0.032700
     59 H74         -3.0250    11.5810    50.2480 ha         1 UOE       0.119000
     60 H75         -3.0320    13.6170    48.6900 h1         1 UOE       0.051950
     61 H76         -4.2270    12.3400    48.4000 h1         1 UOE       0.051950
     62 H79         -4.0560    15.8220    45.0740 h1         1 UOE       0.031700
     63 H81         -2.5100    15.5770    44.2360 h1         1 UOE       0.031700
     64 H80         -3.8250    14.3940    44.0370 h1         1 UOE       0.031700
     65 H53          4.1570    11.0640    43.7730 h1         1 UOE       0.068200
     66 H52          4.2170    11.3770    45.5380 h1         1 UOE       0.068200
     67 H56          7.2840     7.1210    45.2910 ha         1 UOE       0.143000
     68 H57         13.6630     8.0030    43.0470 hn         1 UOE       0.504000
     69 H58         11.8630    10.1930    42.1500 h1         1 UOE       0.078700
     70 H59         10.6830     8.2320    41.1650 hc         1 UOE       0.058450
     71 H60         12.1960     7.5950    40.5200 hc         1 UOE       0.058450
     72 H68          0.1120     8.0040    45.9400 hn         1 UOE       0.327500
     73 H47          0.8530     7.5530    48.7790 h1         1 UOE       0.082700
     74 H71         -2.1070     5.5670    46.7990 ho         1 UOE       0.444000
     75 H72         -0.9580     7.8340    50.6280 ha         1 UOE       0.122000
     76 H78         -4.6520    14.3780    47.0200 h1         1 UOE       0.039450
     77 H77         -4.4360    12.9170    46.0510 h1         1 UOE       0.039450
     78 H82         -2.2080    12.5630    44.8450 h1         1 UOE       0.039450
     79 H83         -0.9500    13.7920    45.0140 h1         1 UOE       0.039450
     80 H84         -0.5080    11.7740    46.3940 h1         1 UOE       0.051950
     81 H85         -0.6070    13.2400    47.3740 h1         1 UOE       0.051950
     82 O32         -1.6760     6.4490    46.8480 oh         1 UOE      -0.655000
     83 H73         -2.3920     9.6160    51.6530 ha         1 UOE       0.113000
     84 C43         -3.3300    15.0630    44.7540 c3         1 UOE       0.151100
@<TRIPOS>BOND
     1     1     2 1   
     2     1    44 1   
     3     1    45 1   
     4     1    46 1   
     5     2    16 1   
     6     2    22 1   
     7     2    47 1   
     8     3     4 ar  
     9     3     7 ar  
    10     3    23 1   
    11     4     5 ar  
    12     4    48 1   
    13     5     6 ar  
    14     5    49 1   
    15     6     9 1   
    16     6    24 ar  
    17     7     8 1   
    18     7    24 ar  
    19     8    22 1   
    20     8    25 2   
    21     9    15 ar  
    22     9    26 ar  
    23    10    26 ar  
    24    10    27 1   
    25    10    31 ar  
    26    11    29 1   
    27    11    30 1   
    28    11    50 1   
    29    11    51 1   
    30    12    13 1   
    31    12    30 1   
    32    12    52 1   
    33    12    53 1   
    34    13    28 1   
    35    13    54 1   
    36    13    55 1   
    37    14    15 ar  
    38    14    31 ar  
    39    14    56 1   
    40    15    32 1   
    41    16    33 2   
    42    16    34 1   
    43    17    35 1   
    44    17    57 1   
    45    17    58 1   
    46    17    82 1   
    47    18    19 ar  
    48    18    37 ar  
    49    18    83 1   
    50    19    20 ar  
    51    19    59 1   
    52    20    38 ar  
    53    20    39 1   
    54    21    39 1   
    55    21    40 1   
    56    21    60 1   
    57    21    61 1   
    58    22    23 1   
    59    23    65 1   
    60    23    66 1   
    61    24    67 1   
    62    27    28 1   
    63    27    68 1   
    64    28    29 1   
    65    28    69 1   
    66    29    70 1   
    67    29    71 1   
    68    34    35 1   
    69    34    72 1   
    70    35    36 1   
    71    35    73 1   
    72    36    37 ar  
    73    36    38 ar  
    74    37    75 1   
    75    39    43 1   
    76    40    41 1   
    77    40    76 1   
    78    40    77 1   
    79    41    42 1   
    80    41    84 1   
    81    42    43 1   
    82    42    78 1   
    83    42    79 1   
    84    43    80 1   
    85    43    81 1   
    86    62    84 1   
    87    63    84 1   
    88    64    84 1   
    89    74    82 1   
@<TRIPOS>SUBSTRUCTURE
     1 UOE         1 TEMP              0 ****  ****    0 ROOT
