@<TRIPOS>MOLECULE
UOF
   40    42     1     0     0
SMALL
No Charge or Current Charge


@<TRIPOS>ATOM
      1 C1         -13.0040     6.7900   -10.3650 ca         1 UOF       0.063000
      2 C2         -11.9360     7.6750   -10.6190 ca         1 UOF      -0.138000
      3 C3         -11.2900     7.6560   -11.8620 ca         1 UOF       0.166000
      4 C4         -11.7010     6.7640   -12.8590 ca         1 UOF      -0.164000
      5 C5         -12.7660     5.8840   -12.6190 ca         1 UOF       0.177000
      6 C6         -13.4370     5.8800   -11.3680 cp         1 UOF      -0.131000
      7 Cl7        -13.2220     4.7710   -13.9090 cl         1 UOF      -0.227000
      8 Cl8         -9.9600     8.7630   -12.1740 cl         1 UOF      -0.217000
      9 C9         -14.5720     4.9430   -11.1090 cp         1 UOF      -0.032000
     10 C10        -14.4560     3.9150   -10.1420 ca         1 UOF      -0.090000
     11 C11        -15.5320     3.0510    -9.8760 ca         1 UOF      -0.117500
     12 C12        -16.7410     3.1990   -10.5750 ca         1 UOF      -0.112000
     13 C13        -16.8730     4.2120   -11.5400 ca         1 UOF      -0.117500
     14 C14        -15.7970     5.0770   -11.8030 ca         1 UOF      -0.090000
     15 N15        -13.7170     6.7680    -9.1380 ns         1 UOF      -0.164000
     16 C16        -13.4280     7.2800    -7.8840 c          1 UOF       0.671100
     17 N17        -14.4110     7.0290    -6.9030 n          1 UOF      -0.395800
     18 O18        -12.3980     7.8860    -7.6190 o          1 UOF      -0.614100
     19 C19        -15.6330     6.2290    -7.1440 c5         1 UOF       0.105000
     20 C20        -16.0970     5.9280    -5.6970 c5         1 UOF      -0.094400
     21 C21        -15.7640     7.2550    -4.9730 c5         1 UOF      -0.078400
     22 C22        -14.3340     7.5680    -5.5110 c5         1 UOF      -0.011300
     23 C23        -14.0440     9.1050    -5.3690 c          1 UOF       0.718000
     24 O24        -13.2210     9.4730    -4.5400 o          1 UOF      -0.718000
     25 O25        -14.6340     9.9050    -6.0860 o          1 UOF      -0.718000
     26 H26        -11.6040     8.3900    -9.8740 ha         1 UOF       0.188000
     27 H27        -11.1940     6.7540   -13.8200 ha         1 UOF       0.135000
     28 H28        -13.5230     3.7930    -9.5960 ha         1 UOF       0.122500
     29 H29        -15.4270     2.2670    -9.1280 ha         1 UOF       0.110000
     30 H30        -17.5740     2.5300   -10.3690 ha         1 UOF       0.106000
     31 H31        -17.8100     4.3280   -12.0810 ha         1 UOF       0.110000
     32 H32        -15.9110     5.8620   -12.5470 ha         1 UOF       0.122500
     33 H33        -14.5920     6.2640    -9.1880 hn         1 UOF       0.151000
     34 H34        -16.3790     6.8180    -7.6940 h1         1 UOF       0.030200
     35 H35        -15.4310     5.3040    -7.7010 h1         1 UOF       0.030200
     36 H36        -17.1600     5.6690    -5.6440 hc         1 UOF       0.033200
     37 H37        -15.5320     5.0920    -5.2680 hc         1 UOF       0.033200
     38 H38        -16.4830     8.0350    -5.2500 hc         1 UOF       0.052200
     39 H39        -15.7890     7.1610    -3.8810 hc         1 UOF       0.052200
     40 H40        -13.5740     7.0170    -4.9430 h1         1 UOF       0.053700
@<TRIPOS>BOND
     1     1     2 ar  
     2     1     6 ar  
     3     1    15 1   
     4     2     3 ar  
     5     2    26 1   
     6     3     4 ar  
     7     3     8 1   
     8     4     5 ar  
     9     4    27 1   
    10     5     6 ar  
    11     5     7 1   
    12     6     9 1   
    13     9    10 ar  
    14     9    14 ar  
    15    10    11 ar  
    16    10    28 1   
    17    11    12 ar  
    18    11    29 1   
    19    12    13 ar  
    20    12    30 1   
    21    13    14 ar  
    22    13    31 1   
    23    14    32 1   
    24    15    16 1   
    25    15    33 1   
    26    16    17 1   
    27    16    18 2   
    28    17    19 1   
    29    17    22 1   
    30    19    20 1   
    31    19    34 1   
    32    19    35 1   
    33    20    21 1   
    34    20    36 1   
    35    20    37 1   
    36    21    22 1   
    37    21    38 1   
    38    21    39 1   
    39    22    23 1   
    40    22    40 1   
    41    23    24 1   
    42    23    25 1   
@<TRIPOS>SUBSTRUCTURE
     1 UOF         1 TEMP              0 ****  ****    0 ROOT
