@<TRIPOS>MOLECULE
UOF
   40    42     1     0     0
SMALL
abcg2


@<TRIPOS>ATOM
      1 C1         -13.0300     6.7200   -10.2990 ca         1 UOF       0.063000
      2 C2         -11.9370     7.5730   -10.4820 ca         1 UOF      -0.138000
      3 C3         -11.2490     7.5320   -11.6830 ca         1 UOF       0.166000
      4 C4         -11.5990     6.6820   -12.7180 ca         1 UOF      -0.164000
      5 C5         -12.6910     5.8480   -12.5120 ca         1 UOF       0.177000
      6 C6         -13.4210     5.8320   -11.3290 cp         1 UOF      -0.131000
      7 CL7        -13.1420     4.7680   -13.8140 cl         1 UOF      -0.227000
      8 CL8         -9.8850     8.6070   -11.9030 cl         1 UOF      -0.217000
      9 C9         -14.5790     4.9210   -11.1230 cp         1 UOF      -0.032000
     10 C10        -14.3970     3.6790   -10.5110 ca         1 UOF      -0.090000
     11 C11        -15.4830     2.8430   -10.2810 ca         1 UOF      -0.117500
     12 C12        -16.7620     3.2410   -10.6560 ca         1 UOF      -0.112000
     13 C13        -16.9510     4.4780   -11.2650 ca         1 UOF      -0.117500
     14 C14        -15.8650     5.3140   -11.4960 ca         1 UOF      -0.090000
     15 N15        -13.7980     6.7140    -9.1390 ns         1 UOF      -0.164000
     16 C16        -13.5170     7.2910    -7.9080 c          1 UOF       0.671100
     17 N17        -14.4530     7.0700    -6.9600 n          1 UOF      -0.395800
     18 O18        -12.4950     7.9500    -7.6960 o          1 UOF      -0.614100
     19 C19        -15.6130     6.1790    -7.0640 c5         1 UOF       0.105000
     20 C20        -15.9710     5.9210    -5.6030 c5         1 UOF      -0.094400
     21 C21        -15.6160     7.2430    -4.9190 c5         1 UOF      -0.078400
     22 C22        -14.3550     7.7330    -5.6570 c5         1 UOF      -0.011300
     23 C23        -14.3340     9.2810    -5.7210 c          1 UOF       0.718000
     24 O24        -13.7340     9.8460    -4.7720 o          1 UOF      -0.718000
     25 O25        -14.9560     9.8380    -6.6560 o          1 UOF      -0.718000
     26 H26        -11.6490     8.2510    -9.6990 ha         1 UOF       0.188000
     27 H27        -11.0500     6.6650   -13.6480 ha         1 UOF       0.135000
     28 H28        -13.4020     3.3750   -10.2110 ha         1 UOF       0.122500
     29 H29        -15.3300     1.8820    -9.8060 ha         1 UOF       0.110000
     30 H30        -17.6090     2.5910   -10.4730 ha         1 UOF       0.106000
     31 H31        -17.9450     4.7930   -11.5590 ha         1 UOF       0.110000
     32 H32        -16.0100     6.2790   -11.9670 ha         1 UOF       0.122500
     33 H33        -14.6420     6.1690    -9.2020 hn         1 UOF       0.151000
     34 H34        -16.4350     6.6670    -7.5980 h1         1 UOF       0.030200
     35 H35        -15.3590     5.2560    -7.5880 h1         1 UOF       0.030200
     36 H36        -17.0170     5.6420    -5.4800 hc         1 UOF       0.033200
     37 H37        -15.3510     5.1120    -5.2120 hc         1 UOF       0.033200
     38 H38        -16.4260     7.9620    -5.0650 hc         1 UOF       0.052200
     39 H39        -15.4420     7.1410    -3.8500 hc         1 UOF       0.052200
     40 H40        -13.4500     7.4010    -5.1440 h1         1 UOF       0.053700
@<TRIPOS>BOND
     1     1     2 ar  
     2     1     6 ar  
     3     1    15 1   
     4     2     3 ar  
     5     2    26 1   
     6     3     4 ar  
     7     3     8 1   
     8     4     5 ar  
     9     4    27 1   
    10     5     6 ar  
    11     5     7 1   
    12     6     9 1   
    13     9    10 ar  
    14     9    14 ar  
    15    10    11 ar  
    16    10    28 1   
    17    11    12 ar  
    18    11    29 1   
    19    12    13 ar  
    20    12    30 1   
    21    13    14 ar  
    22    13    31 1   
    23    14    32 1   
    24    15    16 1   
    25    15    33 1   
    26    16    17 1   
    27    16    18 2   
    28    17    19 1   
    29    17    22 1   
    30    19    20 1   
    31    19    34 1   
    32    19    35 1   
    33    20    21 1   
    34    20    36 1   
    35    20    37 1   
    36    21    22 1   
    37    21    38 1   
    38    21    39 1   
    39    22    23 1   
    40    22    40 1   
    41    23    24 1   
    42    23    25 1   
@<TRIPOS>SUBSTRUCTURE
     1 UOF         1 TEMP              0 ****  ****    0 ROOT
