@<TRIPOS>MOLECULE
UOH
   67    71     1     0     0
SMALL
No Charge or Current Charge


@<TRIPOS>ATOM
      1 C1          -3.5630    12.7360    48.7100 c3         1 UOH       0.147900
      2 C3          -2.1300    10.7280    48.6620 ca         1 UOH       0.168100
      3 C5          -0.9940     9.8630    50.6270 ca         1 UOH       0.210000
      4 C7          -0.4420     8.8250    49.8630 ca         1 UOH      -0.187000
      5 C8          -0.7290     8.7250    48.4880 ca         1 UOH      -0.025300
      6 C10         -0.1130     7.5960    47.6550 c3         1 UOH       0.161000
      7 C11         -1.1550     6.5160    47.2490 c3         1 UOH       0.148600
      8 C16          2.3540     9.1750    45.1070 c3         1 UOH       0.046700
      9 N18          3.8390     9.2550    44.9940 n          1 UOH      -0.402800
     10 C19          4.6610    10.5100    44.9740 c5         1 UOH       0.145300
     11 C21          7.2870    10.5820    44.9120 ca         1 UOH      -0.109000
     12 C22          8.4780     9.8260    44.9020 ca         1 UOH      -0.046000
     13 C23          8.4580     8.4000    44.9480 cp         1 UOH      -0.173500
     14 C24          7.1940     7.7490    44.9810 ca         1 UOH      -0.004000
     15 C25          6.0290     8.5270    44.9880 ca         1 UOH      -0.164600
     16 C26          4.6230     8.0900    45.0220 c          1 UOH       0.585600
     17 C28          9.7350     7.6180    44.9230 cp         1 UOH       0.237500
     18 C36         14.4780    10.5530    39.6190 c3         1 UOH       0.089900
     19 C39         11.2600     5.8790    45.6290 ca         1 UOH       0.163900
     20 C40         10.0140     6.5130    45.7750 ca         1 UOH      -0.050000
     21 O2          -2.9480    11.6330    48.0200 os         1 UOH      -0.341100
     22 C4          -1.8360    10.8150    50.0380 ca         1 UOH      -0.245000
     23 F6          -0.7110     9.9470    51.9440 f          1 UOH      -0.181000
     24 C9          -1.5760     9.6870    47.8990 ca         1 UOH      -0.139000
     25 O12         -1.9790     6.9530    46.1500 oh         1 UOH      -0.663000
     26 N13          0.5800     8.1320    46.4790 ns         1 UOH      -0.499900
     27 O15          2.5620     8.6090    47.4870 o          1 UOH      -0.588100
     28 C17          1.6640    10.5310    44.8120 c3         1 UOH      -0.101100
     29 C20          6.0600     9.9070    44.9590 ca         1 UOH      -0.060300
     30 O27          4.2130     6.9380    45.0550 o          1 UOH      -0.542000
     31 N29         10.6640     8.0340    44.0390 nb         1 UOH      -0.238000
     32 C30         11.8230     7.3560    43.9770 ca         1 UOH       0.395900
     33 N31         12.7820     7.7680    43.0650 nu         1 UOH      -0.870800
     34 C32         12.8600     8.7660    42.1270 cc         1 UOH       0.464900
     35 C33         11.8810     9.7250    41.8080 cc         1 UOH       0.202900
     36 N34         12.3050    10.5240    40.8540 nd         1 UOH      -0.494800
     37 N35         13.5730     9.9920    40.6320 na         1 UOH       0.250600
     38 N37         13.9350     8.8970    41.4120 nd         1 UOH      -0.560800
     39 N38         12.1680     6.2970    44.7250 nb         1 UOH      -0.226000
     40 Cl1          8.9080     5.9450    47.0290 cl         1 UOH      -0.157000
     41 H45         -4.1700    13.3290    48.0140 h1         1 UOH       0.042700
     42 H44         -4.2200    12.3770    49.5120 h1         1 UOH       0.042700
     43 H46         -2.8030    13.3970    49.1450 h1         1 UOH       0.042700
     44 H48          0.2110     8.1020    50.3440 ha         1 UOH       0.132000
     45 H42          0.6330     7.0870    48.2800 h1         1 UOH       0.086700
     46 H50         -1.7730     6.2670    48.1220 h1         1 UOH       0.035200
     47 H51         -0.6120     5.6050    46.9620 h1         1 UOH       0.035200
     48 H43          2.0110     8.4600    44.3480 h1         1 UOH       0.081700
     49 H57          4.4950    11.1240    45.8690 h1         1 UOH       0.069700
     50 H58          4.4720    11.1120    44.0750 h1         1 UOH       0.069700
     51 H59          7.3220    11.6680    44.8830 ha         1 UOH       0.125000
     52 H60          9.4310    10.3520    44.8690 ha         1 UOH       0.127000
     53 H61          7.1210     6.6630    44.9830 ha         1 UOH       0.143000
     54 H65         14.2900    11.6270    39.5080 h1         1 UOH       0.064033
     55 H64         15.5190    10.3990    39.9270 h1         1 UOH       0.064033
     56 H66         14.3050    10.0520    38.6600 h1         1 UOH       0.064033
     57 H67         11.5420     5.0310    46.2520 h4         1 UOH       0.040100
     58 H47         -2.2450    11.6050    50.6590 ha         1 UOH       0.135000
     59 H49         -1.8080     9.6300    46.8390 ha         1 UOH       0.129000
     60 H52         -2.6240     6.2320    45.9690 ho         1 UOH       0.449000
     61 H53          0.0640     8.1590    45.6080 hn         1 UOH       0.327500
     62 H54          0.5730    10.4210    44.8130 hc         1 UOH       0.050700
     63 H56          1.9300    11.2790    45.5680 hc         1 UOH       0.050700
     64 H55          1.9600    10.9090    43.8260 hc         1 UOH       0.050700
     65 H62         13.6340     7.2110    43.0840 hn         1 UOH       0.533000
     66 H63         10.8950     9.8650    42.2270 h4         1 UOH       0.074100
     67 C14          1.8690     8.6170    46.4760 c          1 UOH       0.583100
@<TRIPOS>BOND
     1     1    21 1   
     2     1    41 1   
     3     1    42 1   
     4     1    43 1   
     5     2    21 1   
     6     2    22 ar  
     7     2    24 ar  
     8     3     4 ar  
     9     3    22 ar  
    10     3    23 1   
    11     4     5 ar  
    12     4    44 1   
    13     5     6 1   
    14     5    24 ar  
    15     6     7 1   
    16     6    26 1   
    17     6    45 1   
    18     7    25 1   
    19     7    46 1   
    20     7    47 1   
    21     8     9 1   
    22     8    28 1   
    23     8    48 1   
    24     8    67 1   
    25     9    10 1   
    26     9    16 1   
    27    10    29 1   
    28    10    49 1   
    29    10    50 1   
    30    11    12 ar  
    31    11    29 ar  
    32    11    51 1   
    33    12    13 ar  
    34    12    52 1   
    35    13    14 ar  
    36    13    17 1   
    37    14    15 ar  
    38    14    53 1   
    39    15    16 1   
    40    15    29 ar  
    41    16    30 2   
    42    17    20 ar  
    43    17    31 ar  
    44    18    37 1   
    45    18    54 1   
    46    18    55 1   
    47    18    56 1   
    48    19    20 ar  
    49    19    39 ar  
    50    19    57 1   
    51    20    40 1   
    52    22    58 1   
    53    24    59 1   
    54    25    60 1   
    55    26    61 1   
    56    26    67 1   
    57    27    67 2   
    58    28    62 1   
    59    28    63 1   
    60    28    64 1   
    61    31    32 ar  
    62    32    33 1   
    63    32    39 ar  
    64    33    34 1   
    65    33    65 1   
    66    34    35 1   
    67    34    38 2   
    68    35    36 2   
    69    35    66 1   
    70    36    37 1   
    71    37    38 1   
@<TRIPOS>SUBSTRUCTURE
     1 UOH         1 TEMP              0 ****  ****    0 ROOT
