@<TRIPOS>MOLECULE
UOH
   67    71     1     0     0
SMALL
abcg2


@<TRIPOS>ATOM
      1 C1          -2.5430    13.1330    48.3080 c3         1 UOH       0.147900
      2 C3          -1.5610    10.9770    48.4160 ca         1 UOH       0.168100
      3 C5          -1.3720     9.7260    50.4260 ca         1 UOH       0.210000
      4 C7          -0.7600     8.6780    49.7790 ca         1 UOH      -0.187000
      5 C8          -0.5500     8.7850    48.4040 ca         1 UOH      -0.025300
      6 C10          0.0860     7.6110    47.6850 c3         1 UOH       0.161000
      7 C11         -0.9340     6.5120    47.4100 c3         1 UOH       0.148600
      8 C16          2.4010     8.9630    44.9990 c3         1 UOH       0.046700
      9 N18          3.8390     9.0260    44.9540 n          1 UOH      -0.402800
     10 C19          4.6110    10.2330    45.1750 c5         1 UOH       0.145300
     11 C21          7.2190    10.3960    45.2550 ca         1 UOH      -0.109000
     12 C22          8.3900     9.6540    45.2040 ca         1 UOH      -0.046000
     13 C23          8.3680     8.2580    45.0950 cp         1 UOH      -0.173500
     14 C24          7.1530     7.5870    45.0130 ca         1 UOH      -0.004000
     15 C25          5.9950     8.3420    45.0410 ca         1 UOH      -0.164600
     16 C26          4.5900     7.8960    44.9460 c          1 UOH       0.585600
     17 C28          9.6500     7.5300    45.0060 cp         1 UOH       0.237500
     18 C36         13.7160    10.8960    39.7040 c3         1 UOH       0.089900
     19 C39         11.2140     5.8360    45.5720 ca         1 UOH       0.163900
     20 C40          9.9700     6.4190    45.7800 ca         1 UOH      -0.050000
     21 O2          -1.9050    12.0420    47.6750 os         1 UOH      -0.341100
     22 C4          -1.7820    10.8830    49.7870 ca         1 UOH      -0.245000
     23 F6          -1.5790     9.6350    51.7500 f          1 UOH      -0.181000
     24 C9          -0.9490     9.9240    47.7300 ca         1 UOH      -0.139000
     25 O12         -1.8890     7.0020    46.5020 oh         1 UOH      -0.663000
     26 N13          0.7320     7.9760    46.4480 ns         1 UOH      -0.499900
     27 O15          2.6190     8.7800    47.3920 o          1 UOH      -0.588100
     28 C17          1.7570    10.2850    44.5910 c3         1 UOH      -0.101100
     29 C20          6.0150     9.7190    45.1700 ca         1 UOH      -0.060300
     30 O27          4.1670     6.7560    44.8730 o          1 UOH      -0.542000
     31 N29         10.5320     8.0050    44.1340 nb         1 UOH      -0.238000
     32 C30         11.6940     7.3810    44.0080 ca         1 UOH       0.395900
     33 N31         12.5950     7.8550    43.1120 nu         1 UOH      -0.870800
     34 C32         12.4460     8.9400    42.2750 cc         1 UOH       0.464900
     35 C33         11.4340     9.9020    42.1370 cc         1 UOH       0.202900
     36 N34         11.8110    10.7320    41.1750 nd         1 UOH      -0.494800
     37 N35         12.9690    10.2890    40.7790 na         1 UOH       0.250600
     38 N37         13.4010     9.2150    41.3990 nd         1 UOH      -0.560800
     39 N38         12.0740     6.2960    44.6910 nb         1 UOH      -0.226000
     40 CL1          8.9320     5.7880    47.0020 cl         1 UOH      -0.157000
     41 H45         -2.7360    13.8700    47.5330 h1         1 UOH       0.042700
     42 H44         -3.4930    12.8410    48.7620 h1         1 UOH       0.042700
     43 H46         -1.9090    13.5860    49.0760 h1         1 UOH       0.042700
     44 H48         -0.4470     7.7990    50.3290 ha         1 UOH       0.132000
     45 H42          0.8370     7.1750    48.3500 h1         1 UOH       0.086700
     46 H50         -1.3830     6.2100    48.3630 h1         1 UOH       0.035200
     47 H51         -0.4010     5.6410    47.0100 h1         1 UOH       0.035200
     48 H43          2.0800     8.1950    44.2900 h1         1 UOH       0.081700
     49 H57          4.3560    10.7030    46.1280 h1         1 UOH       0.069700
     50 H58          4.4470    10.9700    44.3850 h1         1 UOH       0.069700
     51 H59          7.2590    11.4730    45.3520 ha         1 UOH       0.125000
     52 H60          9.3440    10.1640    45.2570 ha         1 UOH       0.127000
     53 H61          7.1060     6.5120    44.8980 ha         1 UOH       0.143000
     54 H65         13.2140    11.8140    39.4190 h1         1 UOH       0.064033
     55 H64         14.7260    11.1240    40.0370 h1         1 UOH       0.064033
     56 H66         13.7610    10.2260    38.8480 h1         1 UOH       0.064033
     57 H67         11.5120     4.9670    46.1490 h4         1 UOH       0.040100
     58 H47         -2.2520    11.6710    50.3610 ha         1 UOH       0.135000
     59 H49         -0.7860    10.0220    46.6640 ha         1 UOH       0.129000
     60 H52         -2.4310     6.2670    46.2030 ho         1 UOH       0.449000
     61 H53          0.2130     7.8480    45.5920 hn         1 UOH       0.327500
     62 H54          0.6750    10.1710    44.5460 hc         1 UOH       0.050700
     63 H56          1.9790    11.0840    45.2990 hc         1 UOH       0.050700
     64 H55          2.1000    10.5870    43.6030 hc         1 UOH       0.050700
     65 H62         13.4600     7.3400    43.0350 hn         1 UOH       0.533000
     66 H63         10.5060    10.0180    42.6640 h4         1 UOH       0.074100
     67 C14          1.9410     8.5590    46.4040 c          1 UOH       0.583100
@<TRIPOS>BOND
     1     1    21 1   
     2     1    41 1   
     3     1    42 1   
     4     1    43 1   
     5     2    21 1   
     6     2    22 ar  
     7     2    24 ar  
     8     3     4 ar  
     9     3    22 ar  
    10     3    23 1   
    11     4     5 ar  
    12     4    44 1   
    13     5     6 1   
    14     5    24 ar  
    15     6     7 1   
    16     6    26 1   
    17     6    45 1   
    18     7    25 1   
    19     7    46 1   
    20     7    47 1   
    21     8     9 1   
    22     8    28 1   
    23     8    48 1   
    24     8    67 1   
    25     9    10 1   
    26     9    16 1   
    27    10    29 1   
    28    10    49 1   
    29    10    50 1   
    30    11    12 ar  
    31    11    29 ar  
    32    11    51 1   
    33    12    13 ar  
    34    12    52 1   
    35    13    14 ar  
    36    13    17 1   
    37    14    15 ar  
    38    14    53 1   
    39    15    16 1   
    40    15    29 ar  
    41    16    30 2   
    42    17    20 ar  
    43    17    31 ar  
    44    18    37 1   
    45    18    54 1   
    46    18    55 1   
    47    18    56 1   
    48    19    20 ar  
    49    19    39 ar  
    50    19    57 1   
    51    20    40 1   
    52    22    58 1   
    53    24    59 1   
    54    25    60 1   
    55    26    61 1   
    56    26    67 1   
    57    27    67 2   
    58    28    62 1   
    59    28    63 1   
    60    28    64 1   
    61    31    32 ar  
    62    32    33 1   
    63    32    39 ar  
    64    33    34 1   
    65    33    65 1   
    66    34    35 1   
    67    34    38 2   
    68    35    36 2   
    69    35    66 1   
    70    36    37 1   
    71    37    38 1   
@<TRIPOS>SUBSTRUCTURE
     1 UOH         1 TEMP              0 ****  ****    0 ROOT
