@<TRIPOS>MOLECULE
UOI
   24    25     1     0     0
SMALL
bcc


@<TRIPOS>ATOM
      1 C01          5.3760     0.2050    -0.1430 c3         1 UOI      -0.135400
      2 C02          3.9040     0.0080    -0.1300 cc         1 UOI       0.333600
      3 C03          2.8940     0.9920     0.0480 cc         1 UOI      -0.309600
      4 C04          1.7470     0.2820    -0.0240 cd         1 UOI       0.207200
      5 C05          0.3420     0.7350     0.0850 c          1 UOI       0.608600
      6 N06         -0.5860    -0.2440    -0.0520 ns         1 UOI      -0.458100
      7 C07         -1.9700    -0.1310     0.0050 ca         1 UOI       0.105600
      8 C08         -2.7130    -1.3010    -0.1650 ca         1 UOI      -0.287300
      9 C09         -4.0910    -1.2350    -0.1160 ca         1 UOI       0.423200
     10 N10         -4.7720    -0.1120     0.0870 nb         1 UOI      -0.677000
     11 C11         -4.0580     0.9950     0.2480 ca         1 UOI       0.423200
     12 C12         -2.6720     1.0550     0.2180 ca         1 UOI      -0.287300
     13 O13          0.1080     1.9090     0.2840 o          1 UOI      -0.550100
     14 O14          2.0260    -1.0080    -0.2260 os         1 UOI      -0.124100
     15 N15          3.3730    -1.1720    -0.2910 nd         1 UOI      -0.341300
     16 H01          5.7160     0.5890     0.8180 hc         1 UOI       0.061033
     17 H01A         5.8950    -0.7290    -0.3470 hc         1 UOI       0.061033
     18 H01B         5.6550     0.9320    -0.9040 hc         1 UOI       0.061033
     19 H03          3.0210     2.0500     0.1990 ha         1 UOI       0.189000
     20 HN06        -0.2480    -1.1820    -0.2210 hn         1 UOI       0.340500
     21 H08         -2.2240    -2.2520    -0.3370 ha         1 UOI       0.156500
     22 H09         -4.6720    -2.1410    -0.2490 h4         1 UOI       0.021100
     23 H11         -4.6150     1.9100     0.4150 h4         1 UOI       0.021100
     24 H12         -2.1820     2.0020     0.3610 ha         1 UOI       0.156500
@<TRIPOS>BOND
     1     1     2 1   
     2     1    16 1   
     3     1    17 1   
     4     1    18 1   
     5     2     3 1   
     6     2    15 2   
     7     3     4 2   
     8     3    19 1   
     9     4     5 1   
    10     4    14 1   
    11     5     6 1   
    12     5    13 2   
    13     6     7 1   
    14     6    20 1   
    15     7     8 ar  
    16     7    12 ar  
    17     8     9 ar  
    18     8    21 1   
    19     9    10 ar  
    20     9    22 1   
    21    10    11 ar  
    22    11    12 ar  
    23    11    23 1   
    24    12    24 1   
    25    14    15 1   
@<TRIPOS>SUBSTRUCTURE
     1 UOI         1 TEMP              0 ****  ****    0 ROOT
