@<TRIPOS>MOLECULE
UOI
   24    25     1     0     0
SMALL
No Charge or Current Charge


@<TRIPOS>ATOM
      1 C01          5.4050     0.2470    -0.1360 c3         1 UOI      -0.135400
      2 C02          3.9390    -0.0720    -0.1480 cc         1 UOI       0.268300
      3 C03          2.9500     0.9060     0.0400 cc         1 UOI      -0.161000
      4 C04          1.7750     0.2290    -0.0380 cd         1 UOI       0.097500
      5 C05          0.4000     0.7900     0.0920 c          1 UOI       0.541600
      6 N06         -0.5840    -0.1830    -0.0410 ns         1 UOI      -0.132000
      7 C07         -2.0030    -0.1160     0.0100 ca         1 UOI       0.013000
      8 C08         -2.7370    -1.3010    -0.1640 ca         1 UOI      -0.204000
      9 C09         -4.1400    -1.2650    -0.1200 ca         1 UOI       0.357900
     10 N10         -4.8390    -0.1270     0.0860 nb         1 UOI      -0.677000
     11 C11         -4.1390     1.0170     0.2540 ca         1 UOI       0.357900
     12 C12         -2.7350     1.0680     0.2240 ca         1 UOI      -0.204000
     13 O13          0.1770     1.9800     0.2930 o          1 UOI      -0.550100
     14 O14          2.0220    -1.1020    -0.2640 os         1 UOI      -0.079700
     15 N15          3.4510    -1.2890    -0.3340 nd         1 UOI      -0.341300
     16 H01          5.6990     0.6800     0.8270 hc         1 UOI       0.061033
     17 H01A         6.0100    -0.6520    -0.3020 hc         1 UOI       0.061033
     18 H01B         5.6500     0.9690    -0.9230 hc         1 UOI       0.061033
     19 H03          3.1080     1.9650     0.2100 ha         1 UOI       0.171000
     20 HN06        -0.2240    -1.1140    -0.2040 hn         1 UOI       0.174000
     21 H08         -2.2350    -2.2500    -0.3340 ha         1 UOI       0.138500
     22 H09         -4.7230    -2.1760    -0.2530 h4         1 UOI       0.021100
     23 H11         -4.7220     1.9230     0.4190 h4         1 UOI       0.021100
     24 H12         -2.2530     2.0280     0.3680 ha         1 UOI       0.138500
@<TRIPOS>BOND
     1     1     2 1   
     2     1    16 1   
     3     1    17 1   
     4     1    18 1   
     5     2     3 1   
     6     2    15 2   
     7     3     4 2   
     8     3    19 1   
     9     4     5 1   
    10     4    14 1   
    11     5     6 1   
    12     5    13 2   
    13     6     7 1   
    14     6    20 1   
    15     7     8 ar  
    16     7    12 ar  
    17     8     9 ar  
    18     8    21 1   
    19     9    10 ar  
    20     9    22 1   
    21    10    11 ar  
    22    11    12 ar  
    23    11    23 1   
    24    12    24 1   
    25    14    15 1   
@<TRIPOS>SUBSTRUCTURE
     1 UOI         1 TEMP              0 ****  ****    0 ROOT
