@<TRIPOS>MOLECULE
UOK
   24    25     1     0     0
SMALL
No Charge or Current Charge


@<TRIPOS>ATOM
      1 C10          9.4920   -18.6200    34.5430 ca         1 UOK       0.117100
      2 C13          9.7800   -17.7710    35.6410 ca         1 UOK      -0.162000
      3 C02          9.5380   -16.2960    39.0010 c1         1 UOK       0.304900
      4 C03         10.8190   -16.2090    38.2870 c3         1 UOK       0.065900
      5 C04         11.2970   -17.5180    37.7050 cc         1 UOK      -0.168400
      6 C05         12.3050   -18.3450    38.1940 cd         1 UOK      -0.133100
      7 C07         11.5000   -19.3210    36.3520 ca         1 UOK      -0.081200
      8 C08         11.2400   -20.1810    35.2770 ca         1 UOK      -0.088000
      9 C09         10.2240   -19.8180    34.3680 ca         1 UOK      -0.117000
     10 C12          7.7080   -17.1330    33.7070 c3         1 UOK       0.148900
     11 C14         10.7960   -18.1630    36.5240 ca         1 UOK      -0.055800
     12 N01          8.5220   -16.3360    39.5720 n1         1 UOK      -0.473000
     13 N06         12.4400   -19.4770    37.3540 na         1 UOK      -0.214700
     14 O11          8.5100   -18.3250    33.6180 os         1 UOK      -0.343100
     15 H1           9.2410   -16.8440    35.8110 ha         1 UOK       0.118000
     16 H2          11.5690   -15.8140    38.9810 hc         1 UOK       0.073700
     17 H3          10.7170   -15.4640    37.4900 hc         1 UOK       0.073700
     18 H4          12.9320   -18.2110    39.0740 h4         1 UOK       0.221000
     19 H5          11.8040   -21.1020    35.1450 ha         1 UOK       0.118000
     20 H6           9.9990   -20.4650    33.5240 ha         1 UOK       0.127000
     21 H7           6.9920   -17.0940    32.8770 h1         1 UOK       0.038700
     22 H8           7.1410   -17.1140    34.6460 h1         1 UOK       0.038700
     23 H9           8.3370   -16.2350    33.6560 h1         1 UOK       0.038700
     24 H10         13.0950   -20.2470    37.4650 hn         1 UOK       0.353000
@<TRIPOS>BOND
     1     1     2 ar  
     2     1     9 ar  
     3     1    14 1   
     4     2    11 ar  
     5     2    15 1   
     6     3     4 1   
     7     3    12 3   
     8     4     5 1   
     9     4    16 1   
    10     4    17 1   
    11     5     6 2   
    12     5    11 1   
    13     6    13 1   
    14     6    18 1   
    15     7     8 ar  
    16     7    11 ar  
    17     7    13 1   
    18     8     9 ar  
    19     8    19 1   
    20     9    20 1   
    21    10    14 1   
    22    10    21 1   
    23    10    22 1   
    24    10    23 1   
    25    13    24 1   
@<TRIPOS>SUBSTRUCTURE
     1 UOK         1 TEMP              0 ****  ****    0 ROOT
