@<TRIPOS>MOLECULE
UOK
   24    25     1     0     0
SMALL
abcg2


@<TRIPOS>ATOM
      1 C10          9.6200   -18.5380    34.3610 ca         1 UOK       0.117100
      2 C13          9.6900   -17.7670    35.5070 ca         1 UOK      -0.162000
      3 C02         10.7690   -16.0780    39.7150 c1         1 UOK       0.304900
      4 C03         10.2720   -16.3870    38.3840 c3         1 UOK       0.065900
      5 C04         10.8830   -17.6270    37.8090 cc         1 UOK      -0.168400
      6 C05         11.8170   -18.4570    38.3660 cd         1 UOK      -0.133100
      7 C07         11.3510   -19.3260    36.3710 ca         1 UOK      -0.081200
      8 C08         11.2790   -20.1010    35.2140 ca         1 UOK      -0.088000
      9 C09         10.4130   -19.6980    34.2220 ca         1 UOK      -0.117000
     10 C12          7.9840   -17.1310    33.3790 c3         1 UOK       0.148900
     11 C14         10.5680   -18.1680    36.5250 ca         1 UOK      -0.055800
     12 N01         11.1650   -15.8350    40.7670 n1         1 UOK      -0.473000
     13 N06         12.0980   -19.4740    37.5060 na         1 UOK      -0.214700
     14 O11          8.8180   -18.2650    33.3050 os         1 UOK      -0.343100
     15 H1           9.0900   -16.8750    35.6320 ha         1 UOK       0.118000
     16 H2          10.4650   -15.5200    37.7460 hc         1 UOK       0.073700
     17 H3           9.1830   -16.4790    38.4500 hc         1 UOK       0.073700
     18 H4          12.3090   -18.3960    39.3250 h4         1 UOK       0.221000
     19 H5          11.8800   -20.9930    35.0920 ha         1 UOK       0.118000
     20 H6          10.3320   -20.2780    33.3110 ha         1 UOK       0.127000
     21 H7           7.4110   -17.1040    32.4550 h1         1 UOK       0.038700
     22 H8           7.2890   -17.1860    34.2220 h1         1 UOK       0.038700
     23 H9           8.5580   -16.2030    33.4630 h1         1 UOK       0.038700
     24 H10         12.7550   -20.2160    37.6850 hn         1 UOK       0.353000
@<TRIPOS>BOND
     1     1     2 ar  
     2     1     9 ar  
     3     1    14 1   
     4     2    11 ar  
     5     2    15 1   
     6     3     4 1   
     7     3    12 3   
     8     4     5 1   
     9     4    16 1   
    10     4    17 1   
    11     5     6 2   
    12     5    11 1   
    13     6    13 1   
    14     6    18 1   
    15     7     8 ar  
    16     7    11 ar  
    17     7    13 1   
    18     8     9 ar  
    19     8    19 1   
    20     9    20 1   
    21    10    14 1   
    22    10    21 1   
    23    10    22 1   
    24    10    23 1   
    25    13    24 1   
@<TRIPOS>SUBSTRUCTURE
     1 UOK         1 TEMP              0 ****  ****    0 ROOT
