@<TRIPOS>MOLECULE
UOM
   50    52     1     0     0
SMALL
abcg2


@<TRIPOS>ATOM
      1 C01         28.2340   -19.1770   -16.7810 c3         1 UOM      -0.084100
      2 C02         28.0160   -20.6840   -16.9150 c3         1 UOM      -0.017400
      3 C03         29.3170   -21.4480   -16.6640 c3         1 UOM      -0.084100
      4 C04         27.4240   -21.0520   -18.2560 ca         1 UOM      -0.066300
      5 C05         28.0790   -20.7370   -19.4470 ca         1 UOM      -0.105000
      6 C06         27.5460   -21.1000   -20.6730 ca         1 UOM      -0.091500
      7 C07         26.3410   -21.7920   -20.7550 ca         1 UOM      -0.075300
      8 C08         25.7890   -22.2140   -22.0840 c3         1 UOM      -0.105100
      9 C09         26.4260   -23.5110   -22.5690 c          1 UOM       0.606100
     10 C11         25.1300   -23.3130   -24.6960 c6         1 UOM       0.080000
     11 C12         24.0410   -24.3090   -25.0830 c6         1 UOM       0.202800
     12 C14         24.2800   -26.0700   -26.8160 ca         1 UOM       0.661900
     13 C16         24.6300   -27.7980   -28.2930 ca         1 UOM       0.442900
     14 C17         23.6830   -27.3250   -29.1970 ca         1 UOM      -0.155000
     15 C18         23.4170   -28.0230   -30.4000 cg         1 UOM       0.341000
     16 C20         23.0090   -26.1440   -28.8530 ca         1 UOM       0.010000
     17 C21         23.2970   -25.5140   -27.6740 ca         1 UOM      -0.250000
     18 C22         25.5880   -26.1300   -24.7380 c6         1 UOM       0.202800
     19 C23         26.6770   -25.1360   -24.3710 c6         1 UOM       0.080000
     20 C25         25.6790   -22.0960   -19.5730 ca         1 UOM      -0.091500
     21 C26         26.2130   -21.7300   -18.3430 ca         1 UOM      -0.105000
     22 N10         26.0970   -23.9310   -23.8120 n          1 UOM      -0.422800
     23 N13         24.6250   -25.5140   -25.6350 nh         1 UOM      -0.783300
     24 N15         24.9150   -27.2010   -27.1580 nb         1 UOM      -0.768000
     25 N19         23.2030   -28.5990   -31.3770 n1         1 UOM      -0.464000
     26 O24         27.2070   -24.1300   -21.8630 o          1 UOM      -0.581100
     27 H1          28.6070   -18.9330   -15.7850 hc         1 UOM       0.034867
     28 H2          28.9670   -18.8130   -17.5030 hc         1 UOM       0.034867
     29 H3          27.3080   -18.6240   -16.9370 hc         1 UOM       0.034867
     30 H4          27.2990   -20.9860   -16.1470 hc         1 UOM       0.048700
     31 H5          29.7160   -21.2190   -15.6750 hc         1 UOM       0.034867
     32 H6          29.1610   -22.5260   -16.7210 hc         1 UOM       0.034867
     33 H7          30.0800   -21.1820   -17.3980 hc         1 UOM       0.034867
     34 H8          29.0230   -20.2040   -19.4220 ha         1 UOM       0.111000
     35 H9          28.0780   -20.8420   -21.5820 ha         1 UOM       0.108500
     36 H10         25.9530   -21.4270   -22.8260 hc         1 UOM       0.062200
     37 H11         24.7060   -22.3490   -22.0150 hc         1 UOM       0.062200
     38 H12         25.6380   -22.9660   -25.6010 h1         1 UOM       0.064450
     39 H13         24.6600   -22.4500   -24.2330 h1         1 UOM       0.064450
     40 H14         23.3750   -23.8250   -25.7900 h1         1 UOM       0.066200
     41 H15         23.4490   -24.5660   -24.1990 h1         1 UOM       0.066200
     42 H16         25.1790   -28.7090   -28.5100 h4         1 UOM       0.028100
     43 H17         22.2580   -25.7300   -29.5140 ha         1 UOM       0.126000
     44 H18         22.7630   -24.6100   -27.4260 ha         1 UOM       0.124000
     45 H19         25.0700   -26.4570   -23.8300 h1         1 UOM       0.066200
     46 H20         26.0270   -27.0030   -25.2100 h1         1 UOM       0.066200
     47 H21         27.3570   -25.5850   -23.6530 h1         1 UOM       0.064450
     48 H22         27.2530   -24.8760   -25.2650 h1         1 UOM       0.064450
     49 H23         24.7330   -22.6250   -19.6070 ha         1 UOM       0.108500
     50 H24         25.6770   -21.9830   -17.4350 ha         1 UOM       0.111000
@<TRIPOS>BOND
     1     1     2 1   
     2     1    27 1   
     3     1    28 1   
     4     1    29 1   
     5     2     3 1   
     6     2     4 1   
     7     2    30 1   
     8     3    31 1   
     9     3    32 1   
    10     3    33 1   
    11     4     5 ar  
    12     4    21 ar  
    13     5     6 ar  
    14     5    34 1   
    15     6     7 ar  
    16     6    35 1   
    17     7     8 1   
    18     7    20 ar  
    19     8     9 1   
    20     8    36 1   
    21     8    37 1   
    22     9    22 1   
    23     9    26 2   
    24    10    11 1   
    25    10    22 1   
    26    10    38 1   
    27    10    39 1   
    28    11    23 1   
    29    11    40 1   
    30    11    41 1   
    31    12    17 ar  
    32    12    23 1   
    33    12    24 ar  
    34    13    14 ar  
    35    13    24 ar  
    36    13    42 1   
    37    14    15 1   
    38    14    16 ar  
    39    15    25 3   
    40    16    17 ar  
    41    16    43 1   
    42    17    44 1   
    43    18    19 1   
    44    18    23 1   
    45    18    45 1   
    46    18    46 1   
    47    19    22 1   
    48    19    47 1   
    49    19    48 1   
    50    20    21 ar  
    51    20    49 1   
    52    21    50 1   
@<TRIPOS>SUBSTRUCTURE
     1 UOM         1 TEMP              0 ****  ****    0 ROOT
