@<TRIPOS>MOLECULE
UOM
   50    52     1     0     0
SMALL
No Charge or Current Charge


@<TRIPOS>ATOM
      1 C01         28.9920   -19.3730   -18.3580 c3         1 UOM      -0.084100
      2 C02         29.0670   -20.8350   -18.8520 c3         1 UOM      -0.017400
      3 C03         30.0960   -21.0010   -19.9920 c3         1 UOM      -0.084100
      4 C04         27.6880   -21.3600   -19.2600 ca         1 UOM      -0.066300
      5 C05         26.9770   -20.7750   -20.3270 ca         1 UOM      -0.105000
      6 C06         25.7120   -21.2640   -20.6960 ca         1 UOM      -0.091500
      7 C07         25.1390   -22.3500   -20.0070 ca         1 UOM      -0.075300
      8 C08         23.7680   -22.8910   -20.4080 c3         1 UOM      -0.105100
      9 C09         23.8700   -24.3340   -20.9410 c          1 UOM       0.606100
     10 C11         24.7190   -23.5820   -23.2040 c6         1 UOM       0.080000
     11 C12         24.5470   -23.7890   -24.7350 c6         1 UOM       0.202800
     12 C14         25.1590   -25.5520   -26.4300 ca         1 UOM       0.661900
     13 C16         26.0850   -27.2040   -27.7510 ca         1 UOM       0.442900
     14 C17         26.0570   -26.3860   -28.8900 ca         1 UOM      -0.155000
     15 C18         26.5410   -26.8870   -30.1380 cg         1 UOM       0.341000
     16 C20         25.5490   -25.0830   -28.7770 ca         1 UOM       0.010000
     17 C21         25.0930   -24.6640   -27.5190 ca         1 UOM      -0.250000
     18 C22         23.8340   -26.1200   -24.3740 c6         1 UOM       0.202800
     19 C23         24.0200   -25.9630   -22.8420 c6         1 UOM       0.080000
     20 C25         25.8450   -22.9310   -18.9370 ca         1 UOM      -0.091500
     21 C26         27.1090   -22.4420   -18.5670 ca         1 UOM      -0.105000
     22 N10         23.9780   -24.5540   -22.3350 n          1 UOM      -0.422800
     23 N13         24.7330   -25.2090   -25.1350 nh         1 UOM      -0.783300
     24 N15         25.6430   -26.7990   -26.5380 nb         1 UOM      -0.768000
     25 N19         26.9330   -27.2860   -31.1620 n1         1 UOM      -0.464000
     26 O24         23.8230   -25.2800   -20.1640 o          1 UOM      -0.581100
     27 H1          29.9710   -19.0380   -17.9930 hc         1 UOM       0.034867
     28 H2          28.6790   -18.6980   -19.1630 hc         1 UOM       0.034867
     29 H3          28.2740   -19.2830   -17.5340 hc         1 UOM       0.034867
     30 H4          29.4360   -21.4320   -18.0080 hc         1 UOM       0.048700
     31 H5          31.0950   -20.6970   -19.6570 hc         1 UOM       0.034867
     32 H6          30.1490   -22.0480   -20.3110 hc         1 UOM       0.034867
     33 H7          29.8270   -20.3900   -20.8620 hc         1 UOM       0.034867
     34 H8          27.4010   -19.9360   -20.8730 ha         1 UOM       0.111000
     35 H9          25.1800   -20.7920   -21.5190 ha         1 UOM       0.108500
     36 H10         23.3300   -22.2420   -21.1730 hc         1 UOM       0.062200
     37 H11         23.1160   -22.8900   -19.5270 hc         1 UOM       0.062200
     38 H12         25.7890   -23.6570   -22.9640 h1         1 UOM       0.064450
     39 H13         24.4150   -22.5520   -22.9820 h1         1 UOM       0.064450
     40 H14         25.2750   -23.1410   -25.2450 h1         1 UOM       0.066200
     41 H15         23.5430   -23.4470   -25.0280 h1         1 UOM       0.066200
     42 H16         26.4720   -28.2210   -27.8050 h4         1 UOM       0.028100
     43 H17         25.5050   -24.4160   -29.6360 ha         1 UOM       0.126000
     44 H18         24.6840   -23.6670   -27.4030 ha         1 UOM       0.124000
     45 H19         22.7850   -25.9010   -24.6260 h1         1 UOM       0.066200
     46 H20         24.0080   -27.1750   -24.6310 h1         1 UOM       0.066200
     47 H21         23.2440   -26.5570   -22.3390 h1         1 UOM       0.064450
     48 H22         24.9900   -26.4000   -22.5650 h1         1 UOM       0.064450
     49 H23         25.4150   -23.7660   -18.3880 ha         1 UOM       0.108500
     50 H24         27.6380   -22.9070   -17.7390 ha         1 UOM       0.111000
@<TRIPOS>BOND
     1     1     2 1   
     2     1    27 1   
     3     1    28 1   
     4     1    29 1   
     5     2     3 1   
     6     2     4 1   
     7     2    30 1   
     8     3    31 1   
     9     3    32 1   
    10     3    33 1   
    11     4     5 ar  
    12     4    21 ar  
    13     5     6 ar  
    14     5    34 1   
    15     6     7 ar  
    16     6    35 1   
    17     7     8 1   
    18     7    20 ar  
    19     8     9 1   
    20     8    36 1   
    21     8    37 1   
    22     9    22 1   
    23     9    26 2   
    24    10    11 1   
    25    10    22 1   
    26    10    38 1   
    27    10    39 1   
    28    11    23 1   
    29    11    40 1   
    30    11    41 1   
    31    12    17 ar  
    32    12    23 1   
    33    12    24 ar  
    34    13    14 ar  
    35    13    24 ar  
    36    13    42 1   
    37    14    15 1   
    38    14    16 ar  
    39    15    25 3   
    40    16    17 ar  
    41    16    43 1   
    42    17    44 1   
    43    18    19 1   
    44    18    23 1   
    45    18    45 1   
    46    18    46 1   
    47    19    22 1   
    48    19    47 1   
    49    19    48 1   
    50    20    21 ar  
    51    20    49 1   
    52    21    50 1   
@<TRIPOS>SUBSTRUCTURE
     1 UOM         1 TEMP              0 ****  ****    0 ROOT
