@<TRIPOS>MOLECULE
UON
   31    33     1     0     0
SMALL
No Charge or Current Charge


@<TRIPOS>ATOM
      1 C10        -16.4540   -24.3300    -1.9850 ca         1 UON      -0.171000
      2 C11        -15.4510   -23.8820    -2.8900 ca         1 UON       0.123100
      3 C13        -15.8470   -25.7590    -4.4460 c3         1 UON       0.149900
      4 C14        -14.7160   -22.7110    -2.6080 ca         1 UON      -0.092000
      5 C15        -14.9940   -22.0080    -1.4290 ca         1 UON       0.108400
      6 C17        -15.0320   -20.5750     0.1870 cc         1 UON       0.478800
      7 C03        -18.9690   -21.2610     3.4120 ca         1 UON      -0.195600
      8 C04        -18.9060   -20.3200     2.3640 ca         1 UON      -0.053500
      9 C05        -17.9080   -20.4210     1.3800 ca         1 UON      -0.116000
     10 C06        -16.9600   -21.4600     1.4350 ca         1 UON       0.030800
     11 C08        -15.9590   -22.4550    -0.5690 ca         1 UON      -0.098200
     12 C09        -16.7180   -23.6090    -0.8010 ca         1 UON      -0.072000
     13 C19        -17.0240   -22.4030     2.4760 ca         1 UON      -0.116000
     14 C20        -18.0210   -22.3050     3.4610 ca         1 UON      -0.053500
     15 N07        -15.9710   -21.5700     0.4610 na         1 UON      -0.102400
     16 N16        -14.3910   -20.8310    -0.9740 nd         1 UON      -0.554100
     17 O12        -15.1590   -24.5560    -4.0590 os         1 UON      -0.341100
     18 Cl1        -14.7270   -19.1990     1.2080 cl         1 UON      -0.044300
     19 H1         -17.0320   -25.2280    -2.1820 ha         1 UON       0.120000
     20 H2         -15.4600   -26.1270    -5.4040 h1         1 UON       0.040367
     21 H3         -15.7040   -26.5480    -3.6960 h1         1 UON       0.040367
     22 H4         -16.9220   -25.5740    -4.5620 h1         1 UON       0.040367
     23 H5         -13.9510   -22.3590    -3.2940 ha         1 UON       0.147000
     24 H6         -20.7480   -20.2880     4.3390 h4         1 UON      -0.006800
     25 H9         -19.6320   -19.5100     2.3070 ha         1 UON       0.131500
     26 H10        -17.8750   -19.6930     0.5720 ha         1 UON       0.136500
     27 H11        -17.4800   -23.9370    -0.0980 ha         1 UON       0.125000
     28 H12        -16.2980   -23.2120     2.5220 ha         1 UON       0.136500
     29 H13        -18.0540   -23.0430     4.2610 ha         1 UON       0.131500
     30 O1         -20.1620   -21.9220     5.4000 o          1 UON      -0.507100
     31 C02        -20.0450   -21.1410     4.4600 c          1 UON       0.583500
@<TRIPOS>BOND
     1     1     2 ar  
     2     1    12 ar  
     3     1    19 1   
     4     2     4 ar  
     5     2    17 1   
     6     3    17 1   
     7     3    20 1   
     8     3    21 1   
     9     3    22 1   
    10     4     5 ar  
    11     4    23 1   
    12     5    11 ar  
    13     5    16 1   
    14     6    15 1   
    15     6    16 2   
    16     6    18 1   
    17     7     8 ar  
    18     7    14 ar  
    19     7    31 1   
    20     8     9 ar  
    21     8    25 1   
    22     9    10 ar  
    23     9    26 1   
    24    10    13 ar  
    25    10    15 1   
    26    11    12 ar  
    27    11    15 1   
    28    12    27 1   
    29    13    14 ar  
    30    13    28 1   
    31    14    29 1   
    32    24    31 1   
    33    30    31 2   
@<TRIPOS>SUBSTRUCTURE
     1 UON         1 TEMP              0 ****  ****    0 ROOT
