@<TRIPOS>MOLECULE
UON
   31    33     1     0     0
SMALL
abcg2


@<TRIPOS>ATOM
      1 C10        -16.5030   -24.2680    -2.0460 ca         1 UON      -0.171000
      2 C11        -15.4060   -23.9210    -2.8550 ca         1 UON       0.123100
      3 C13        -15.7550   -25.7940    -4.2800 c3         1 UON       0.149900
      4 C14        -14.6390   -22.7970    -2.5700 ca         1 UON      -0.092000
      5 C15        -14.9860   -22.0350    -1.4620 ca         1 UON       0.108400
      6 C17        -15.1120   -20.5780     0.0610 cc         1 UON       0.478800
      7 C03        -18.9200   -21.2950     3.4420 ca         1 UON      -0.195600
      8 C04        -18.8720   -20.2640     2.5090 ca         1 UON      -0.053500
      9 C05        -17.9560   -20.3000     1.4700 ca         1 UON      -0.116000
     10 C06        -17.0770   -21.3690     1.3820 ca         1 UON       0.030800
     11 C08        -16.0770   -22.3990    -0.6620 ca         1 UON      -0.098200
     12 C09        -16.8530   -23.5090    -0.9400 ca         1 UON      -0.072000
     13 C19        -17.1150   -22.4070     2.3090 ca         1 UON      -0.116000
     14 C20        -18.0390   -22.3700     3.3350 ca         1 UON      -0.053500
     15 N07        -16.1440   -21.4280     0.3240 na         1 UON      -0.102400
     16 N16        -14.4020   -20.8860    -0.9720 nd         1 UON      -0.554100
     17 O12        -15.0310   -24.6300    -3.9410 os         1 UON      -0.341100
     18 CL1        -14.8060   -19.2480     1.0690 cl         1 UON      -0.044300
     19 H1         -17.1010   -25.1390    -2.2720 ha         1 UON       0.120000
     20 H2         -15.2790   -26.2050    -5.1670 h1         1 UON       0.040367
     21 H3         -15.7220   -26.5450    -3.4860 h1         1 UON       0.040367
     22 H4         -16.8000   -25.5750    -4.5140 h1         1 UON       0.040367
     23 H5         -13.7980   -22.5250    -3.1950 ha         1 UON       0.147000
     24 H6         -20.5570   -20.3310     4.5060 h4         1 UON      -0.006800
     25 H9         -19.5590   -19.4300     2.5880 ha         1 UON       0.131500
     26 H10        -17.9320   -19.5090     0.7330 ha         1 UON       0.136500
     27 H11        -17.7020   -23.7900    -0.3320 ha         1 UON       0.125000
     28 H12        -16.4170   -23.2310     2.2280 ha         1 UON       0.136500
     29 H13        -18.0700   -23.1740     4.0580 ha         1 UON       0.131500
     30 O1         -20.0280   -22.0590     5.3970 o          1 UON      -0.507100
     31 C02        -19.9100   -21.2260     4.5320 c          1 UON       0.583500
@<TRIPOS>BOND
     1     1     2 ar  
     2     1    12 ar  
     3     1    19 1   
     4     2     4 ar  
     5     2    17 1   
     6     3    17 1   
     7     3    20 1   
     8     3    21 1   
     9     3    22 1   
    10     4     5 ar  
    11     4    23 1   
    12     5    11 ar  
    13     5    16 1   
    14     6    15 1   
    15     6    16 2   
    16     6    18 1   
    17     7     8 ar  
    18     7    14 ar  
    19     7    31 1   
    20     8     9 ar  
    21     8    25 1   
    22     9    10 ar  
    23     9    26 1   
    24    10    13 ar  
    25    10    15 1   
    26    11    12 ar  
    27    11    15 1   
    28    12    27 1   
    29    13    14 ar  
    30    13    28 1   
    31    14    29 1   
    32    24    31 1   
    33    30    31 2   
@<TRIPOS>SUBSTRUCTURE
     1 UON         1 TEMP              0 ****  ****    0 ROOT
