@<TRIPOS>MOLECULE
UOP
   46    48     1     0     0
SMALL
No Charge or Current Charge


@<TRIPOS>ATOM
      1 C01        -27.6150    18.8540   -16.7940 c3         1 UOP      -0.084600
      2 C02        -28.3550    20.1880   -17.0370 c3         1 UOP      -0.014400
      3 C03        -29.8760    19.9750   -17.2020 c3         1 UOP      -0.084600
      4 C04        -27.7630    20.9490   -18.2260 ca         1 UOP      -0.088300
      5 C05        -27.7990    20.4050   -19.5250 ca         1 UOP      -0.084500
      6 C06        -27.2520    21.1130   -20.6090 ca         1 UOP      -0.133500
      7 C07        -26.6610    22.3760   -20.4210 ca         1 UOP      -0.027000
      8 C09        -25.5660    24.2860   -21.7610 c          1 UOP       0.667100
      9 C11        -24.6620    25.8610   -23.4500 c2         1 UOP      -0.113400
     10 C12        -24.3440    26.2350   -24.7020 c2         1 UOP      -0.068000
     11 C14        -24.2360    25.7410   -27.1250 ca         1 UOP       0.578900
     12 C17        -24.0500    26.7330   -29.6860 ca         1 UOP       0.304000
     13 C18        -23.9860    27.3160   -31.0020 cg         1 UOP       0.230000
     14 C20        -23.5720    25.4320   -29.4380 ca         1 UOP      -0.042000
     15 C21        -23.6640    24.9240   -28.1240 ca         1 UOP      -0.189000
     16 C22        -24.4300    23.8740   -25.4470 c6         1 UOP       0.205800
     17 C23        -25.3160    23.5870   -24.2040 c6         1 UOP       0.084000
     18 C25        -26.6210    22.9190   -19.1190 ca         1 UOP      -0.133500
     19 C26        -27.1680    22.2110   -18.0340 ca         1 UOP      -0.084500
     20 N08        -26.1270    23.0280   -21.5680 ns         1 UOP      -0.163000
     21 N10        -25.1210    24.5610   -23.0850 n          1 UOP      -0.340000
     22 N13        -24.3680    25.3270   -25.7690 nh         1 UOP      -0.638100
     23 N15        -24.6720    26.9930   -27.4290 nb         1 UOP      -0.389000
     24 N16        -24.5830    27.4820   -28.6880 nb         1 UOP      -0.231000
     25 N19        -23.9290    27.7790   -32.0740 n1         1 UOP      -0.433000
     26 O24        -25.4560    25.1200   -20.8690 o          1 UOP      -0.593100
     27 H1         -27.9950    18.3600   -15.8920 hc         1 UOP       0.035367
     28 H2         -27.7450    18.1680   -17.6390 hc         1 UOP       0.035367
     29 H3         -26.5410    19.0310   -16.6570 hc         1 UOP       0.035367
     30 H4         -28.2200    20.7900   -16.1300 hc         1 UOP       0.049700
     31 H5         -30.2990    19.5020   -16.3080 hc         1 UOP       0.035367
     32 H6         -30.3840    20.9350   -17.3510 hc         1 UOP       0.035367
     33 H7         -30.0960    19.3330   -18.0640 hc         1 UOP       0.035367
     34 H8         -28.2510    19.4320   -19.7000 ha         1 UOP       0.114500
     35 H9         -27.2910    20.6730   -21.6030 ha         1 UOP       0.121500
     36 H10        -24.6170    26.5770   -22.6250 h4         1 UOP       0.234000
     37 H11        -24.0270    27.2590   -24.9300 h4         1 UOP       0.238000
     38 H12        -23.1380    24.8370   -30.2380 ha         1 UOP       0.140000
     39 H13        -23.2880    23.9330   -27.8960 ha         1 UOP       0.133000
     40 H14        -24.8100    23.2870   -26.2960 h1         1 UOP       0.061700
     41 H15        -23.4140    23.5160   -25.2270 h1         1 UOP       0.061700
     42 H16        -26.3710    23.6240   -24.5110 h1         1 UOP       0.056700
     43 H17        -25.1030    22.5630   -23.8660 h1         1 UOP       0.056700
     44 H18        -26.1680    23.8840   -18.9210 ha         1 UOP       0.121500
     45 H19        -27.1260    22.6490   -17.0390 ha         1 UOP       0.114500
     46 H20        -26.1650    22.4630   -22.4050 hn         1 UOP       0.149000
@<TRIPOS>BOND
     1     1     2 1   
     2     1    27 1   
     3     1    28 1   
     4     1    29 1   
     5     2     3 1   
     6     2     4 1   
     7     2    30 1   
     8     3    31 1   
     9     3    32 1   
    10     3    33 1   
    11     4     5 ar  
    12     4    19 ar  
    13     5     6 ar  
    14     5    34 1   
    15     6     7 ar  
    16     6    35 1   
    17     7    18 ar  
    18     7    20 1   
    19     8    20 1   
    20     8    21 1   
    21     8    26 2   
    22     9    10 2   
    23     9    21 1   
    24     9    36 1   
    25    10    22 1   
    26    10    37 1   
    27    11    15 ar  
    28    11    22 1   
    29    11    23 ar  
    30    12    13 1   
    31    12    14 ar  
    32    12    24 ar  
    33    13    25 3   
    34    14    15 ar  
    35    14    38 1   
    36    15    39 1   
    37    16    17 1   
    38    16    22 1   
    39    16    40 1   
    40    16    41 1   
    41    17    21 1   
    42    17    42 1   
    43    17    43 1   
    44    18    19 ar  
    45    18    44 1   
    46    19    45 1   
    47    20    46 1   
    48    23    24 ar  
@<TRIPOS>SUBSTRUCTURE
     1 UOP         1 TEMP              0 ****  ****    0 ROOT
