@<TRIPOS>MOLECULE
UOP
   46    48     1     0     0
SMALL
abcg2


@<TRIPOS>ATOM
      1 C01        -27.6850    18.7320   -17.0760 c3         1 UOP      -0.084600
      2 C02        -28.0120    20.2240   -17.0170 c3         1 UOP      -0.014400
      3 C03        -29.4920    20.4470   -16.7110 c3         1 UOP      -0.084600
      4 C04        -27.5900    20.9290   -18.2850 ca         1 UOP      -0.088300
      5 C05        -28.1600    20.6130   -19.5160 ca         1 UOP      -0.084500
      6 C06        -27.7690    21.2600   -20.6770 ca         1 UOP      -0.133500
      7 C07        -26.7780    22.2400   -20.6460 ca         1 UOP      -0.027000
      8 C09        -26.0560    24.1380   -22.0240 c          1 UOP       0.667100
      9 C11        -25.5490    25.8150   -23.6460 c2         1 UOP      -0.113400
     10 C12        -25.0840    26.2300   -24.8270 c2         1 UOP      -0.068000
     11 C14        -24.2160    25.7290   -27.0150 ca         1 UOP       0.578900
     12 C17        -23.7590    26.6670   -29.4610 ca         1 UOP       0.304000
     13 C18        -23.5770    27.2550   -30.7500 cg         1 UOP       0.230000
     14 C20        -23.2130    25.4180   -29.1410 ca         1 UOP      -0.042000
     15 C21        -23.4350    24.9380   -27.8850 ca         1 UOP      -0.189000
     16 C22        -24.1920    24.0400   -25.2200 c6         1 UOP       0.205800
     17 C23        -25.3250    23.5250   -24.3420 c6         1 UOP       0.084000
     18 C25        -26.1870    22.5560   -19.4260 ca         1 UOP      -0.133500
     19 C26        -26.6040    21.9100   -18.2700 ca         1 UOP      -0.084500
     20 N08        -26.3760    22.8180   -21.8600 ns         1 UOP      -0.163000
     21 N10        -25.6210    24.4750   -23.2880 n          1 UOP      -0.340000
     22 N13        -24.5210    25.3470   -25.7530 nh         1 UOP      -0.638100
     23 N15        -24.6920    26.9240   -27.4040 nb         1 UOP      -0.389000
     24 N16        -24.4630    27.3790   -28.5950 nb         1 UOP      -0.231000
     25 N19        -23.4220    27.7190   -31.7920 n1         1 UOP      -0.433000
     26 O24        -26.1390    24.9660   -21.1350 o          1 UOP      -0.593100
     27 H1         -27.9480    18.2440   -16.1360 hc         1 UOP       0.035367
     28 H2         -28.2440    18.2350   -17.8720 hc         1 UOP       0.035367
     29 H3         -26.6230    18.5640   -17.2570 hc         1 UOP       0.035367
     30 H4         -27.4330    20.6590   -16.1960 hc         1 UOP       0.049700
     31 H5         -29.7650    19.9760   -15.7650 hc         1 UOP       0.035367
     32 H6         -29.7280    21.5100   -16.6350 hc         1 UOP       0.035367
     33 H7         -30.1290    20.0190   -17.4870 hc         1 UOP       0.035367
     34 H8         -28.9300    19.8530   -19.5820 ha         1 UOP       0.114500
     35 H9         -28.2370    20.9990   -21.6190 ha         1 UOP       0.121500
     36 H10        -25.9150    26.5340   -22.9310 h4         1 UOP       0.234000
     37 H11        -25.0930    27.2760   -25.0820 h4         1 UOP       0.238000
     38 H12        -22.6230    24.8660   -29.8600 ha         1 UOP       0.140000
     39 H13        -23.0030    23.9960   -27.5840 ha         1 UOP       0.133000
     40 H14        -24.0550    23.3190   -26.0200 h1         1 UOP       0.061700
     41 H15        -23.2630    24.0900   -24.6450 h1         1 UOP       0.061700
     42 H16        -26.2090    23.3370   -24.9590 h1         1 UOP       0.056700
     43 H17        -24.9950    22.5780   -23.9190 h1         1 UOP       0.056700
     44 H18        -25.3960    23.2890   -19.3640 ha         1 UOP       0.121500
     45 H19        -26.1310    22.1730   -17.3310 ha         1 UOP       0.114500
     46 H20        -26.6040    22.2770   -22.6800 hn         1 UOP       0.149000
@<TRIPOS>BOND
     1     1     2 1   
     2     1    27 1   
     3     1    28 1   
     4     1    29 1   
     5     2     3 1   
     6     2     4 1   
     7     2    30 1   
     8     3    31 1   
     9     3    32 1   
    10     3    33 1   
    11     4     5 ar  
    12     4    19 ar  
    13     5     6 ar  
    14     5    34 1   
    15     6     7 ar  
    16     6    35 1   
    17     7    18 ar  
    18     7    20 1   
    19     8    20 1   
    20     8    21 1   
    21     8    26 2   
    22     9    10 2   
    23     9    21 1   
    24     9    36 1   
    25    10    22 1   
    26    10    37 1   
    27    11    15 ar  
    28    11    22 1   
    29    11    23 ar  
    30    12    13 1   
    31    12    14 ar  
    32    12    24 ar  
    33    13    25 3   
    34    14    15 ar  
    35    14    38 1   
    36    15    39 1   
    37    16    17 1   
    38    16    22 1   
    39    16    40 1   
    40    16    41 1   
    41    17    21 1   
    42    17    42 1   
    43    17    43 1   
    44    18    19 ar  
    45    18    44 1   
    46    19    45 1   
    47    20    46 1   
    48    23    24 ar  
@<TRIPOS>SUBSTRUCTURE
     1 UOP         1 TEMP              0 ****  ****    0 ROOT
