@<TRIPOS>MOLECULE
UOR
   22    23     1     0     0
SMALL
abcg2


@<TRIPOS>ATOM
      1 C10          6.1050     7.7470    23.8560 cc         1 UOR      -0.200000
      2 C11          2.2600     5.3420    19.4340 ca         1 UOR       0.135000
      3 O14          3.1940     6.8810    16.7410 o          1 UOR      -0.699000
      4 C1           4.1130     6.4880    21.1360 ca         1 UOR      -0.023200
      5 N2           5.0610     7.0840    22.0010 na         1 UOR       0.128200
      6 C3           3.7930     7.1010    19.9280 ca         1 UOR      -0.104000
      7 C4           3.4940     5.2900    21.4920 ca         1 UOR      -0.152000
      8 C5           6.1640     7.8120    21.6030 cd         1 UOR      -0.182000
      9 C6           5.0270     7.0440    23.3800 cd         1 UOR      -0.182000
     10 C7           2.8690     6.5340    19.0540 ca         1 UOR      -0.075600
     11 C8           2.5580     4.7230    20.6400 ca         1 UOR      -0.109000
     12 C9           6.8290     8.2320    22.7280 cc         1 UOR      -0.200000
     13 C12          2.5380     7.2420    17.7440 c          1 UOR       0.715600
     14 O15          1.6530     8.1250    17.8080 o          1 UOR      -0.699000
     15 H22          6.3440     7.9050    24.8960 ha         1 UOR       0.118000
     16 H16          4.2540     8.0450    19.6670 ha         1 UOR       0.128000
     17 H17          3.7490     4.7950    22.4190 ha         1 UOR       0.104000
     18 H18          6.3920     7.9430    20.5590 h4         1 UOR       0.147000
     19 H19          4.2250     6.5480    23.8980 h4         1 UOR       0.147000
     20 H20          2.0710     3.7950    20.9090 ha         1 UOR       0.108000
     21 H21          7.7380     8.8120    22.7410 ha         1 UOR       0.118000
     22 CL13         1.0710     4.5940    18.3780 cl         1 UOR      -0.225000
@<TRIPOS>BOND
     1     1     9 2   
     2     1    12 1   
     3     1    15 1   
     4     2    10 ar  
     5     2    11 ar  
     6     2    22 1   
     7     3    13 1   
     8     4     5 1   
     9     4     6 ar  
    10     4     7 ar  
    11     5     8 1   
    12     5     9 1   
    13     6    10 ar  
    14     6    16 1   
    15     7    11 ar  
    16     7    17 1   
    17     8    12 2   
    18     8    18 1   
    19     9    19 1   
    20    10    13 1   
    21    11    20 1   
    22    12    21 1   
    23    13    14 1   
@<TRIPOS>SUBSTRUCTURE
     1 UOR         1 TEMP              0 ****  ****    0 ROOT
