@<TRIPOS>MOLECULE
UOR
   22    23     1     0     0
SMALL
No Charge or Current Charge


@<TRIPOS>ATOM
      1 C10          5.7390     8.3620    23.4510 cc         1 UOR      -0.200000
      2 C11          2.4130     5.3080    19.3210 ca         1 UOR       0.135000
      3 O14          2.5430     7.4500    17.1310 o          1 UOR      -0.699000
      4 C1           4.2510     6.2140    21.2620 ca         1 UOR      -0.023200
      5 N2           5.1590     6.6520    22.2250 na         1 UOR       0.128200
      6 C3           3.7300     7.1070    20.3040 ca         1 UOR      -0.104000
      7 C4           3.8490     4.8660    21.2430 ca         1 UOR      -0.152000
      8 C5           6.4210     7.0140    21.7570 cd         1 UOR      -0.182000
      9 C6           4.6700     7.5490    23.1740 cd         1 UOR      -0.182000
     10 C7           2.8150     6.6620    19.3250 ca         1 UOR      -0.075600
     11 C8           2.9320     4.4180    20.2770 ca         1 UOR      -0.109000
     12 C9           6.8080     8.0350    22.5850 cc         1 UOR      -0.200000
     13 C12          2.2790     7.6350    18.3110 c          1 UOR       0.715600
     14 O15          1.6770     8.6170    18.7240 o          1 UOR      -0.699000
     15 H22          5.7550     9.1760    24.1710 ha         1 UOR       0.118000
     16 H16          4.0390     8.1500    20.3140 ha         1 UOR       0.128000
     17 H17          4.2440     4.1680    21.9780 ha         1 UOR       0.104000
     18 H18          6.9140     6.5330    20.9200 h4         1 UOR       0.147000
     19 H19          3.6560     7.5290    23.5570 h4         1 UOR       0.147000
     20 H20          2.6170     3.3770    20.2720 ha         1 UOR       0.108000
     21 H21          7.7570     8.5640    22.5510 ha         1 UOR       0.118000
     22 Cl13         1.2360     4.6960    18.1580 cl         1 UOR      -0.225000
@<TRIPOS>BOND
     1     1     9 2   
     2     1    12 1   
     3     1    15 1   
     4     2    10 ar  
     5     2    11 ar  
     6     2    22 1   
     7     3    13 1   
     8     4     5 1   
     9     4     6 ar  
    10     4     7 ar  
    11     5     8 1   
    12     5     9 1   
    13     6    10 ar  
    14     6    16 1   
    15     7    11 ar  
    16     7    17 1   
    17     8    12 2   
    18     8    18 1   
    19     9    19 1   
    20    10    13 1   
    21    11    20 1   
    22    12    21 1   
    23    13    14 1   
@<TRIPOS>SUBSTRUCTURE
     1 UOR         1 TEMP              0 ****  ****    0 ROOT
