@<TRIPOS>MOLECULE
UOS
   48    50     1     0     0
SMALL
No Charge or Current Charge


@<TRIPOS>ATOM
      1 C02        -36.3650   -10.2930   -17.3400 ca         1 UOS       0.322000
      2 C04        -36.2950    -8.7760   -15.6220 ca         1 UOS       0.241900
      3 C05        -35.4400    -9.6510   -14.8660 ca         1 UOS       0.570900
      4 C07        -35.4680    -8.2100   -12.7860 c6         1 UOS       0.191300
      5 C08        -35.3430    -8.4420   -11.2560 c6         1 UOS       0.087500
      6 C10        -33.7250    -8.8830    -9.3950 c          1 UOS       0.607100
      7 C11        -32.3290    -9.2990    -8.8940 c3         1 UOS      -0.106100
      8 C12        -32.3020   -10.7710    -8.4880 ca         1 UOS      -0.075300
      9 C13        -31.5150   -11.6980    -9.1980 ca         1 UOS      -0.091500
     10 C14        -31.4980   -13.0530    -8.8230 ca         1 UOS      -0.105500
     11 C15        -32.2650   -13.5030    -7.7290 ca         1 UOS      -0.066300
     12 C16        -32.2520   -14.9750    -7.3130 c3         1 UOS      -0.017400
     13 C17        -32.8100   -15.8850    -8.4300 c3         1 UOS      -0.084100
     14 C18        -30.8450   -15.4240    -6.8610 c3         1 UOS      -0.084100
     15 C19        -33.0450   -12.5720    -7.0150 ca         1 UOS      -0.105500
     16 C20        -33.0620   -11.2180    -7.3900 ca         1 UOS      -0.091500
     17 C22        -33.3780    -9.9390   -11.6700 c6         1 UOS       0.087500
     18 C23        -33.5380    -9.6880   -13.1940 c6         1 UOS       0.191300
     19 C25        -35.5200   -11.1660   -16.5980 ca         1 UOS       0.364900
     20 N03        -36.7660    -9.0840   -16.8660 nb         1 UOS      -0.599000
     21 N06        -34.9450    -9.3630   -13.5670 nh         1 UOS      -0.763300
     22 N09        -34.0000    -8.9030   -10.7840 n          1 UOS      -0.420800
     23 N24        -35.0500   -10.8540   -15.3550 nb         1 UOS      -0.723000
     24 O21        -34.5760    -8.5040    -8.5980 o          1 UOS      -0.582100
     25 Cl01       -36.9470   -10.7370   -18.9410 cl         1 UOS      -0.155000
     26 H1         -36.6000    -7.8080   -15.2300 h4         1 UOS       0.034100
     27 H2         -34.9180    -7.2950   -13.0540 h1         1 UOS       0.059700
     28 H3         -36.5300    -8.0320   -13.0080 h1         1 UOS       0.059700
     29 H4         -35.6110    -7.5060   -10.7440 h1         1 UOS       0.066450
     30 H5         -36.0880    -9.1940   -10.9590 h1         1 UOS       0.066450
     31 H6         -31.5840    -9.1240    -9.6780 hc         1 UOS       0.063200
     32 H7         -32.0740    -8.6870    -8.0210 hc         1 UOS       0.063200
     33 H8         -30.9110   -11.3740   -10.0420 ha         1 UOS       0.108500
     34 H9         -30.8850   -13.7510    -9.3870 ha         1 UOS       0.111000
     35 H10        -32.9140   -15.1030    -6.4460 hc         1 UOS       0.048700
     36 H11        -32.8710   -16.9250    -8.0870 hc         1 UOS       0.035200
     37 H12        -33.8180   -15.5640    -8.7180 hc         1 UOS       0.035200
     38 H13        -32.1720   -15.8560    -9.3210 hc         1 UOS       0.035200
     39 H14        -30.8690   -16.4550    -6.4890 hc         1 UOS       0.035200
     40 H15        -30.1290   -15.3770    -7.6900 hc         1 UOS       0.035200
     41 H16        -30.4780   -14.7800    -6.0530 hc         1 UOS       0.035200
     42 H17        -33.6410   -12.8950    -6.1650 ha         1 UOS       0.111000
     43 H18        -33.6690   -10.5150    -6.8250 ha         1 UOS       0.108500
     44 H19        -33.8300   -10.9120   -11.4300 h1         1 UOS       0.066450
     45 H20        -32.3040   -10.0290   -11.4700 h1         1 UOS       0.066450
     46 H21        -33.1690   -10.5800   -13.7200 h1         1 UOS       0.059700
     47 H22        -32.8800    -8.8550   -13.4820 h1         1 UOS       0.059700
     48 H23        -35.2170   -12.1280   -17.0090 h4         1 UOS       0.040100
@<TRIPOS>BOND
     1     1    19 ar  
     2     1    20 ar  
     3     1    25 1   
     4     2     3 ar  
     5     2    20 ar  
     6     2    26 1   
     7     3    21 1   
     8     3    23 ar  
     9     4     5 1   
    10     4    21 1   
    11     4    27 1   
    12     4    28 1   
    13     5    22 1   
    14     5    29 1   
    15     5    30 1   
    16     6     7 1   
    17     6    22 1   
    18     6    24 2   
    19     7     8 1   
    20     7    31 1   
    21     7    32 1   
    22     8     9 ar  
    23     8    16 ar  
    24     9    10 ar  
    25     9    33 1   
    26    10    11 ar  
    27    10    34 1   
    28    11    12 1   
    29    11    15 ar  
    30    12    13 1   
    31    12    14 1   
    32    12    35 1   
    33    13    36 1   
    34    13    37 1   
    35    13    38 1   
    36    14    39 1   
    37    14    40 1   
    38    14    41 1   
    39    15    16 ar  
    40    15    42 1   
    41    16    43 1   
    42    17    18 1   
    43    17    22 1   
    44    17    44 1   
    45    17    45 1   
    46    18    21 1   
    47    18    46 1   
    48    18    47 1   
    49    19    23 ar  
    50    19    48 1   
@<TRIPOS>SUBSTRUCTURE
     1 UOS         1 TEMP              0 ****  ****    0 ROOT
