@<TRIPOS>MOLECULE
UOS
   48    50     1     0     0
SMALL
abcg2


@<TRIPOS>ATOM
      1 C02        -36.0020    -6.1850   -16.5760 ca         1 UOS       0.322000
      2 C04        -36.7100    -7.7530   -15.1130 ca         1 UOS       0.241900
      3 C05        -35.3920    -8.2540   -14.9880 ca         1 UOS       0.570900
      4 C07        -36.0430    -9.9050   -13.3010 c6         1 UOS       0.191300
      5 C08        -35.7320   -11.3660   -13.0160 c6         1 UOS       0.087500
      6 C10        -34.0600   -11.9270   -11.3250 c          1 UOS       0.607100
      7 C11        -32.5820   -11.9500   -10.9520 c3         1 UOS      -0.106100
      8 C12        -32.3650   -12.3850    -9.5340 ca         1 UOS      -0.075300
      9 C13        -32.2550   -13.7330    -9.2050 ca         1 UOS      -0.091500
     10 C14        -32.0680   -14.1340    -7.8920 ca         1 UOS      -0.105500
     11 C15        -31.9830   -13.2000    -6.8590 ca         1 UOS      -0.066300
     12 C16        -31.7760   -13.6310    -5.4250 c3         1 UOS      -0.017400
     13 C17        -32.9290   -14.5030    -4.9290 c3         1 UOS      -0.084100
     14 C18        -30.4360   -14.3440    -5.2430 c3         1 UOS      -0.084100
     15 C19        -32.0880   -11.8540    -7.1930 ca         1 UOS      -0.105500
     16 C20        -32.2750   -11.4510    -8.5090 ca         1 UOS      -0.091500
     17 C22        -33.4280   -11.0320   -13.5700 c6         1 UOS       0.087500
     18 C23        -33.6820    -9.5640   -13.8610 c6         1 UOS       0.191300
     19 C25        -34.7000    -6.6350   -16.4510 ca         1 UOS       0.364900
     20 N03        -36.9860    -6.7390   -15.9050 nb         1 UOS      -0.599000
     21 N06        -35.0730    -9.3360   -14.2230 nh         1 UOS      -0.763300
     22 N09        -34.3620   -11.5250   -12.5810 n          1 UOS      -0.420800
     23 N24        -34.4110    -7.6520   -15.6610 nb         1 UOS      -0.723000
     24 O21        -34.9190   -12.2660   -10.5260 o          1 UOS      -0.582100
     25 CL01       -36.3720    -4.8490   -17.6130 cl         1 UOS      -0.155000
     26 H1         -37.5460    -8.1680   -14.5680 h4         1 UOS       0.034100
     27 H2         -36.0620    -9.3380   -12.3610 h1         1 UOS       0.059700
     28 H3         -37.0410    -9.8690   -13.7320 h1         1 UOS       0.059700
     29 H4         -36.4140   -11.7370   -12.2560 h1         1 UOS       0.066450
     30 H5         -35.8860   -11.9560   -13.9250 h1         1 UOS       0.066450
     31 H6         -32.0490   -12.6140   -11.6380 hc         1 UOS       0.063200
     32 H7         -32.1590   -10.9530   -11.1040 hc         1 UOS       0.063200
     33 H8         -32.3140   -14.4810    -9.9880 ha         1 UOS       0.108500
     34 H9         -31.9840   -15.1930    -7.6730 ha         1 UOS       0.111000
     35 H10        -31.7570   -12.7240    -4.8130 hc         1 UOS       0.048700
     36 H11        -32.7940   -14.7560    -3.8760 hc         1 UOS       0.035200
     37 H12        -33.8880   -13.9940    -5.0320 hc         1 UOS       0.035200
     38 H13        -32.9850   -15.4400    -5.4870 hc         1 UOS       0.035200
     39 H14        -30.2750   -14.5980    -4.1940 hc         1 UOS       0.035200
     40 H15        -30.4020   -15.2720    -5.8170 hc         1 UOS       0.035200
     41 H16        -29.6040   -13.7190    -5.5680 hc         1 UOS       0.035200
     42 H17        -32.0210   -11.1050    -6.4120 ha         1 UOS       0.111000
     43 H18        -32.3510   -10.3940    -8.7380 ha         1 UOS       0.108500
     44 H19        -33.5450   -11.6180   -14.4870 h1         1 UOS       0.066450
     45 H20        -32.3990   -11.1530   -13.2430 h1         1 UOS       0.066450
     46 H21        -33.0390    -9.2490   -14.6780 h1         1 UOS       0.059700
     47 H22        -33.4150    -8.9670   -12.9790 h1         1 UOS       0.059700
     48 H23        -33.8840    -6.1650   -16.9870 h4         1 UOS       0.040100
@<TRIPOS>BOND
     1     1    19 ar  
     2     1    20 ar  
     3     1    25 1   
     4     2     3 ar  
     5     2    20 ar  
     6     2    26 1   
     7     3    21 1   
     8     3    23 ar  
     9     4     5 1   
    10     4    21 1   
    11     4    27 1   
    12     4    28 1   
    13     5    22 1   
    14     5    29 1   
    15     5    30 1   
    16     6     7 1   
    17     6    22 1   
    18     6    24 2   
    19     7     8 1   
    20     7    31 1   
    21     7    32 1   
    22     8     9 ar  
    23     8    16 ar  
    24     9    10 ar  
    25     9    33 1   
    26    10    11 ar  
    27    10    34 1   
    28    11    12 1   
    29    11    15 ar  
    30    12    13 1   
    31    12    14 1   
    32    12    35 1   
    33    13    36 1   
    34    13    37 1   
    35    13    38 1   
    36    14    39 1   
    37    14    40 1   
    38    14    41 1   
    39    15    16 ar  
    40    15    42 1   
    41    16    43 1   
    42    17    18 1   
    43    17    22 1   
    44    17    44 1   
    45    17    45 1   
    46    18    21 1   
    47    18    46 1   
    48    18    47 1   
    49    19    23 ar  
    50    19    48 1   
@<TRIPOS>SUBSTRUCTURE
     1 UOS         1 TEMP              0 ****  ****    0 ROOT
