@<TRIPOS>MOLECULE
UOT
   31    33     1     0     0
SMALL
No Charge or Current Charge


@<TRIPOS>ATOM
      1 C10        -13.9600   -18.8300     0.2940 ca         1 UOT       0.162100
      2 C12        -12.5270   -16.8430     0.5900 c3         1 UOT       0.148900
      3 C13        -13.1320   -19.3640    -0.7320 ca         1 UOT      -0.210000
      4 C14        -13.4570   -20.5930    -1.3500 ca         1 UOT      -0.007000
      5 C15        -14.6120   -21.2700    -0.9300 ca         1 UOT       0.035400
      6 C17        -16.2180   -22.6880    -0.6500 cc         1 UOT       0.466800
      7 C03        -19.1380   -21.6620     3.4490 ca         1 UOT      -0.194600
      8 C04        -19.2590   -20.7000     2.4250 ca         1 UOT      -0.053000
      9 C05        -18.3530   -20.6900     1.3510 ca         1 UOT      -0.115000
     10 C06        -17.3190   -21.6400     1.2850 ca         1 UOT       0.030800
     11 C08        -15.4000   -20.7400     0.0570 ca         1 UOT      -0.023200
     12 C09        -15.1140   -19.5280     0.6970 ca         1 UOT      -0.160000
     13 C19        -17.1910   -22.5980     2.3080 ca         1 UOT      -0.115000
     14 C20        -18.0950   -22.6120     3.3840 ca         1 UOT      -0.053000
     15 N07        -16.4240   -21.6170     0.2190 na         1 UOT      -0.108400
     16 N16        -15.1090   -22.4920    -1.3960 nd         1 UOT      -0.539100
     17 O11        -13.6800   -17.6350     0.9250 os         1 UOT      -0.342100
     18 Cl1        -17.2570   -24.0810    -0.7620 cl         1 UOT      -0.045300
     19 H1         -12.4950   -15.9370     1.2090 h1         1 UOT       0.042367
     20 H2         -11.6010   -17.4060     0.7650 h1         1 UOT       0.042367
     21 H3         -12.5580   -16.5330    -0.4620 h1         1 UOT       0.042367
     22 H4         -12.2360   -18.8440    -1.0600 ha         1 UOT       0.121000
     23 H5         -12.8280   -21.0090    -2.1330 ha         1 UOT       0.132000
     24 H6         -20.9020   -20.8760     4.5620 h4         1 UOT      -0.007800
     25 H9         -20.0550   -19.9570     2.4590 ha         1 UOT       0.131500
     26 H10        -18.4550   -19.9420     0.5670 ha         1 UOT       0.136000
     27 H11        -15.7590   -19.1350     1.4780 ha         1 UOT       0.139000
     28 H12        -16.3880   -23.3310     2.2740 ha         1 UOT       0.136000
     29 H13        -17.9820   -23.3610     4.1660 ha         1 UOT       0.131500
     30 O1         -20.0720   -22.4670     5.5190 o          1 UOT      -0.507100
     31 C02        -20.1150   -21.6620     4.5940 c          1 UOT       0.583500
@<TRIPOS>BOND
     1     1     3 ar  
     2     1    12 ar  
     3     1    17 1   
     4     2    17 1   
     5     2    19 1   
     6     2    20 1   
     7     2    21 1   
     8     3     4 ar  
     9     3    22 1   
    10     4     5 ar  
    11     4    23 1   
    12     5    11 ar  
    13     5    16 1   
    14     6    15 1   
    15     6    16 2   
    16     6    18 1   
    17     7     8 ar  
    18     7    14 ar  
    19     7    31 1   
    20     8     9 ar  
    21     8    25 1   
    22     9    10 ar  
    23     9    26 1   
    24    10    13 ar  
    25    10    15 1   
    26    11    12 ar  
    27    11    15 1   
    28    12    27 1   
    29    13    14 ar  
    30    13    28 1   
    31    14    29 1   
    32    24    31 1   
    33    30    31 2   
@<TRIPOS>SUBSTRUCTURE
     1 UOT         1 TEMP              0 ****  ****    0 ROOT
