@<TRIPOS>MOLECULE
UOT
   31    33     1     0     0
SMALL
abcg2


@<TRIPOS>ATOM
      1 C10        -13.9350   -18.8610     0.3260 ca         1 UOT       0.162100
      2 C12        -12.6170   -16.8900     0.5230 c3         1 UOT       0.148900
      3 C13        -13.2120   -19.3000    -0.7990 ca         1 UOT      -0.210000
      4 C14        -13.5350   -20.4830    -1.4420 ca         1 UOT      -0.007000
      5 C15        -14.5970   -21.2350    -0.9580 ca         1 UOT       0.035400
      6 C17        -16.0870   -22.6800    -0.5870 cc         1 UOT       0.466800
      7 C03        -19.1540   -21.6510     3.4130 ca         1 UOT      -0.194600
      8 C04        -19.1320   -20.6580     2.4400 ca         1 UOT      -0.053000
      9 C05        -18.1850   -20.6900     1.4290 ca         1 UOT      -0.115000
     10 C06        -17.2540   -21.7180     1.4050 ca         1 UOT       0.030800
     11 C08        -15.3080   -20.7750     0.1590 ca         1 UOT      -0.023200
     12 C09        -15.0030   -19.6020     0.8260 ca         1 UOT      -0.160000
     13 C19        -17.2570   -22.7100     2.3810 ca         1 UOT      -0.115000
     14 C20        -18.2120   -22.6790     3.3780 ca         1 UOT      -0.053000
     15 N07        -16.2730   -21.7360     0.3890 na         1 UOT      -0.108400
     16 N16        -15.1210   -22.4340    -1.3980 nd         1 UOT      -0.539100
     17 O11        -13.6560   -17.7240     0.9920 os         1 UOT      -0.342100
     18 CL1        -17.1130   -24.0290    -0.6860 cl         1 UOT      -0.045300
     19 H1         -12.5840   -16.0340     1.1940 h1         1 UOT       0.042367
     20 H2         -11.6450   -17.3900     0.5460 h1         1 UOT       0.042367
     21 H3         -12.8040   -16.5310    -0.4930 h1         1 UOT       0.042367
     22 H4         -12.3850   -18.7180    -1.1810 ha         1 UOT       0.121000
     23 H5         -12.9680   -20.8110    -2.3030 ha         1 UOT       0.132000
     24 H6         -20.8640   -20.7270     4.3950 h4         1 UOT      -0.007800
     25 H9         -19.8620   -19.8580     2.4640 ha         1 UOT       0.131500
     26 H10        -18.1750   -19.9270     0.6610 ha         1 UOT       0.136000
     27 H11        -15.5560   -19.2610     1.6910 ha         1 UOT       0.139000
     28 H12        -16.5120   -23.4950     2.3620 ha         1 UOT       0.136000
     29 H13        -18.2200   -23.4490     4.1380 ha         1 UOT       0.131500
     30 O1         -20.2860   -22.3970     5.3620 o          1 UOT      -0.507100
     31 C02        -20.1780   -21.5900     4.4720 c          1 UOT       0.583500
@<TRIPOS>BOND
     1     1     3 ar  
     2     1    12 ar  
     3     1    17 1   
     4     2    17 1   
     5     2    19 1   
     6     2    20 1   
     7     2    21 1   
     8     3     4 ar  
     9     3    22 1   
    10     4     5 ar  
    11     4    23 1   
    12     5    11 ar  
    13     5    16 1   
    14     6    15 1   
    15     6    16 2   
    16     6    18 1   
    17     7     8 ar  
    18     7    14 ar  
    19     7    31 1   
    20     8     9 ar  
    21     8    25 1   
    22     9    10 ar  
    23     9    26 1   
    24    10    13 ar  
    25    10    15 1   
    26    11    12 ar  
    27    11    15 1   
    28    12    27 1   
    29    13    14 ar  
    30    13    28 1   
    31    14    29 1   
    32    24    31 1   
    33    30    31 2   
@<TRIPOS>SUBSTRUCTURE
     1 UOT         1 TEMP              0 ****  ****    0 ROOT
