@<TRIPOS>MOLECULE
UOU
   48    50     1     0     0
SMALL
No Charge or Current Charge


@<TRIPOS>ATOM
      1 C10        165.0110   160.0880   157.5210 ca         1 UOU      -0.071000
      2 C13        163.0390   161.8450   158.5170 ca         1 UOU      -0.151300
      3 C15        163.3070   163.8050   160.8930 ca         1 UOU       0.134100
      4 C17        164.7740   164.8410   162.5450 ca         1 UOU      -0.063500
      5 C20        163.2640   162.6340   161.6800 ca         1 UOU      -0.166500
      6 C22        165.3010   163.9260   167.0900 c3         1 UOU       0.142100
      7 C01        160.5230   158.4960   160.8090 ca         1 UOU      -0.097300
      8 C02        159.3220   157.9750   160.2870 ca         1 UOU      -0.077500
      9 C03        158.1840   157.8660   161.1060 ca         1 UOU      -0.106000
     10 C04        158.2410   158.2790   162.4470 ca         1 UOU       0.134000
     11 C05        159.4340   158.8000   162.9720 ca         1 UOU      -0.106000
     12 C06        160.5740   158.9100   162.1550 ca         1 UOU      -0.077500
     13 C08        162.9500   160.4590   158.7810 ca         1 UOU       0.139100
     14 C09        163.9430   159.5850   158.2810 ca         1 UOU      -0.194000
     15 C11        165.0950   161.4620   157.2540 ca         1 UOU      -0.143000
     16 C12        164.1130   162.3360   157.7470 ca         1 UOU      -0.057000
     17 C14        161.9810   162.8230   159.0390 c3         1 UOU       0.216900
     18 C16        164.0590   164.9050   161.3360 ca         1 UOU      -0.166500
     19 C18        164.7390   163.6710   163.3280 ca         1 UOU      -0.126300
     20 C19        163.9790   162.5700   162.8890 ca         1 UOU      -0.063500
     21 N01        164.6410   163.9270   165.7700 n7         1 UOU      -0.858400
     22 O01        161.8870   159.9960   159.5300 os         1 UOU      -0.360100
     23 O02        162.6250   163.9330   159.6980 os         1 UOU      -0.352100
     24 Cl1        156.8170   158.1430   163.4690 cl         1 UOU      -0.209000
     25 H1         165.7730   159.4120   157.1370 ha         1 UOU       0.113000
     26 H2         165.3550   165.7010   162.8720 ha         1 UOU       0.113500
     27 H3         162.6820   161.7710   161.3770 ha         1 UOU       0.125000
     28 H4         165.9290   162.5830   164.7490 h1         1 UOU       0.034700
     29 H5         166.3660   164.2910   164.5870 h1         1 UOU       0.034700
     30 H6         164.5820   164.1770   167.8810 h1         1 UOU       0.029700
     31 H7         165.7240   162.9380   167.3150 h1         1 UOU       0.029700
     32 H8         166.1140   164.6640   167.1220 h1         1 UOU       0.029700
     33 H9         159.2690   157.6570   159.2480 ha         1 UOU       0.121500
     34 H10        157.2580   157.4650   160.7010 ha         1 UOU       0.133000
     35 H11        159.4750   159.1200   164.0100 ha         1 UOU       0.133000
     36 H12        161.4940   159.3180   162.5670 ha         1 UOU       0.121500
     37 H13        161.6570   157.9710   159.0480 h1         1 UOU       0.045700
     38 H14        162.6400   158.2980   160.4950 h1         1 UOU       0.045700
     39 H15        163.9010   158.5160   158.4680 ha         1 UOU       0.116000
     40 H16        165.9220   161.8520   156.6630 ha         1 UOU       0.118000
     41 H17        164.1890   163.4010   157.5330 ha         1 UOU       0.130000
     42 H18        161.4020   163.1890   158.1820 h1         1 UOU       0.070200
     43 H19        161.2690   162.3330   159.7140 h1         1 UOU       0.070200
     44 H20        164.0910   165.8110   160.7360 ha         1 UOU       0.125000
     45 H21        163.9400   161.6640   163.4900 ha         1 UOU       0.113500
     46 H22        164.2570   164.8650   165.6020 hn         1 UOU       0.408000
     47 C21        165.5170   163.5950   164.6330 c3         1 UOU       0.206100
     48 C07        161.7580   158.6210   159.9270 c3         1 UOU       0.212900
@<TRIPOS>BOND
     1     1    14 ar  
     2     1    15 ar  
     3     1    25 1   
     4     2    13 ar  
     5     2    16 ar  
     6     2    17 1   
     7     3     5 ar  
     8     3    18 ar  
     9     3    23 1   
    10     4    18 ar  
    11     4    19 ar  
    12     4    26 1   
    13     5    20 ar  
    14     5    27 1   
    15     6    21 1   
    16     6    30 1   
    17     6    31 1   
    18     6    32 1   
    19     7     8 ar  
    20     7    12 ar  
    21     7    48 1   
    22     8     9 ar  
    23     8    33 1   
    24     9    10 ar  
    25     9    34 1   
    26    10    11 ar  
    27    10    24 1   
    28    11    12 ar  
    29    11    35 1   
    30    12    36 1   
    31    13    14 ar  
    32    13    22 1   
    33    14    39 1   
    34    15    16 ar  
    35    15    40 1   
    36    16    41 1   
    37    17    23 1   
    38    17    42 1   
    39    17    43 1   
    40    18    44 1   
    41    19    20 ar  
    42    19    47 1   
    43    20    45 1   
    44    21    46 1   
    45    21    47 1   
    46    22    48 1   
    47    28    47 1   
    48    29    47 1   
    49    37    48 1   
    50    38    48 1   
@<TRIPOS>SUBSTRUCTURE
     1 UOU         1 TEMP              0 ****  ****    0 ROOT
