@<TRIPOS>MOLECULE
UOU
   48    50     1     0     0
SMALL
abcg2


@<TRIPOS>ATOM
      1 C10        164.8290   159.8870   157.8010 ca         1 UOU      -0.071000
      2 C13        163.0240   161.5290   159.1610 ca         1 UOU      -0.151300
      3 C15        163.3910   163.7910   161.2870 ca         1 UOU       0.134100
      4 C17        164.7220   165.2960   162.6170 ca         1 UOU      -0.063500
      5 C20        163.8290   162.7220   162.0690 ca         1 UOU      -0.166500
      6 C22        166.2340   164.8350   166.9760 c3         1 UOU       0.142100
      7 C01        159.9990   158.0990   160.2310 ca         1 UOU      -0.097300
      8 C02        158.8330   157.8550   159.5100 ca         1 UOU      -0.077500
      9 C03        157.6160   157.6720   160.1570 ca         1 UOU      -0.106000
     10 C04        157.5780   157.7430   161.5420 ca         1 UOU       0.134000
     11 C05        158.7250   157.9850   162.2880 ca         1 UOU      -0.106000
     12 C06        159.9320   158.1590   161.6240 ca         1 UOU      -0.077500
     13 C08        162.7640   160.1570   159.0100 ca         1 UOU       0.139100
     14 C09        163.6660   159.3370   158.3370 ca         1 UOU      -0.194000
     15 C11        165.0930   161.2420   157.9340 ca         1 UOU      -0.143000
     16 C12        164.1860   162.0530   158.6140 ca         1 UOU      -0.057000
     17 C14        162.0230   162.3860   159.8970 c3         1 UOU       0.216900
     18 C16        163.8450   165.0800   161.5640 ca         1 UOU      -0.166500
     19 C18        165.1680   164.2420   163.4160 ca         1 UOU      -0.126300
     20 C19        164.7060   162.9610   163.1230 ca         1 UOU      -0.063500
     21 N01        165.3660   164.5010   165.8500 n7         1 UOU      -0.858400
     22 O01        161.5910   159.7210   159.5540 os         1 UOU      -0.360100
     23 O02        162.5260   163.6770   160.2340 os         1 UOU      -0.352100
     24 CL1        156.0500   157.5160   162.3700 cl         1 UOU      -0.209000
     25 H1         165.5250   159.2430   157.2780 ha         1 UOU       0.113000
     26 H2         165.0690   166.3030   162.8200 ha         1 UOU       0.113500
     27 H3         163.5110   161.7120   161.8630 ha         1 UOU       0.125000
     28 H4         166.8430   163.6920   164.6330 h1         1 UOU       0.034700
     29 H5         166.6400   165.4300   164.4120 h1         1 UOU       0.034700
     30 H6         165.6400   164.9100   167.8880 h1         1 UOU       0.029700
     31 H7         166.9720   164.0420   167.1150 h1         1 UOU       0.029700
     32 H8         166.7810   165.7800   166.8390 h1         1 UOU       0.029700
     33 H9         158.8720   157.8040   158.4280 ha         1 UOU       0.121500
     34 H10        156.7140   157.4800   159.5940 ha         1 UOU       0.133000
     35 H11        158.6760   158.0300   163.3670 ha         1 UOU       0.133000
     36 H12        160.8320   158.3430   162.1970 ha         1 UOU       0.121500
     37 H13        161.2440   157.9700   158.4910 h1         1 UOU       0.045700
     38 H14        162.1130   157.7750   160.0290 h1         1 UOU       0.045700
     39 H15        163.4720   158.2810   158.2220 ha         1 UOU       0.116000
     40 H16        165.9960   161.6690   157.5180 ha         1 UOU       0.118000
     41 H17        164.3880   163.1090   158.7300 ha         1 UOU       0.130000
     42 H18        161.1550   162.5810   159.2640 h1         1 UOU       0.070200
     43 H19        161.6610   161.8740   160.7900 h1         1 UOU       0.070200
     44 H20        163.5040   165.9010   160.9460 ha         1 UOU       0.125000
     45 H21        165.0420   162.1240   163.7240 ha         1 UOU       0.113500
     46 H22        164.6230   165.1900   165.7860 hn         1 UOU       0.408000
     47 C21        166.0940   164.4880   164.5760 c3         1 UOU       0.206100
     48 C07        161.3050   158.3130   159.5270 c3         1 UOU       0.212900
@<TRIPOS>BOND
     1     1    14 ar  
     2     1    15 ar  
     3     1    25 1   
     4     2    13 ar  
     5     2    16 ar  
     6     2    17 1   
     7     3     5 ar  
     8     3    18 ar  
     9     3    23 1   
    10     4    18 ar  
    11     4    19 ar  
    12     4    26 1   
    13     5    20 ar  
    14     5    27 1   
    15     6    21 1   
    16     6    30 1   
    17     6    31 1   
    18     6    32 1   
    19     7     8 ar  
    20     7    12 ar  
    21     7    48 1   
    22     8     9 ar  
    23     8    33 1   
    24     9    10 ar  
    25     9    34 1   
    26    10    11 ar  
    27    10    24 1   
    28    11    12 ar  
    29    11    35 1   
    30    12    36 1   
    31    13    14 ar  
    32    13    22 1   
    33    14    39 1   
    34    15    16 ar  
    35    15    40 1   
    36    16    41 1   
    37    17    23 1   
    38    17    42 1   
    39    17    43 1   
    40    18    44 1   
    41    19    20 ar  
    42    19    47 1   
    43    20    45 1   
    44    21    46 1   
    45    21    47 1   
    46    22    48 1   
    47    28    47 1   
    48    29    47 1   
    49    37    48 1   
    50    38    48 1   
@<TRIPOS>SUBSTRUCTURE
     1 UOU         1 TEMP              0 ****  ****    0 ROOT
