@<TRIPOS>MOLECULE
UOV
   49    52     1     0     0
SMALL
abcg2


@<TRIPOS>ATOM
      1 C14        178.3690   159.5480   124.8670 c6         1 UOV       0.100500
      2 C15        177.4850   159.6520   123.6230 c6         1 UOV      -0.108400
      3 C16        176.9130   158.2900   123.2610 cy         1 UOV       0.159000
      4 C17        177.8720   157.3510   122.4930 cy         1 UOV      -0.131400
      5 C21        177.1160   157.6270   125.6770 c6         1 UOV       0.100500
      6 C24        172.2860   162.3970   131.9190 ca         1 UOV      -0.099500
      7 C25        171.5470   162.9540   132.9550 ca         1 UOV      -0.111000
      8 C02        171.8540   162.6850   134.2900 ca         1 UOV      -0.075300
      9 C03        172.9350   161.8410   134.5490 ca         1 UOV      -0.111000
     10 C04        173.6770   161.2830   133.5170 ca         1 UOV      -0.099500
     11 C05        173.3690   161.5490   132.1770 cp         1 UOV      -0.030000
     12 C06        174.1610   160.9600   131.0760 cp         1 UOV      -0.060000
     13 C07        174.7130   159.6780   131.1780 ca         1 UOV      -0.072000
     14 C08        175.4570   159.1290   130.1460 ca         1 UOV      -0.149500
     15 C09        175.6780   159.8430   128.9630 ca         1 UOV      -0.005000
     16 C18        176.9140   157.5320   121.3120 cy         1 UOV       0.138600
     17 C20        176.1980   157.6730   124.4520 c6         1 UOV      -0.108400
     18 C22        175.1270   161.1220   128.8430 ca         1 UOV      -0.149500
     19 C23        174.3870   161.6610   129.8860 ca         1 UOV      -0.072000
     20 N10        176.3950   159.2080   127.9410 ns         1 UOV      -0.161000
     21 N13        177.6290   158.9640   125.9840 n          1 UOV      -0.418800
     22 O12        177.2340   161.0380   126.8520 o          1 UOV      -0.621100
     23 O19        176.0280   158.3770   122.0980 oq         1 UOV      -0.456000
     24 H1         179.2260   158.8990   124.6630 h1         1 UOV       0.058950
     25 H2         178.7430   160.5220   125.1630 h1         1 UOV       0.058950
     26 H3         178.0620   160.0480   122.7850 hc         1 UOV       0.066200
     27 H4         176.6590   160.3400   123.8220 hc         1 UOV       0.066200
     28 H5         177.9280   156.3400   122.8910 hc         1 UOV       0.061200
     29 H6         178.8770   157.7410   122.3450 hc         1 UOV       0.061200
     30 H7         176.5850   157.1980   126.5200 h1         1 UOV       0.058950
     31 H8         177.9740   156.9800   125.4790 h1         1 UOV       0.058950
     32 H9         172.0080   162.6140   130.8950 ha         1 UOV       0.112500
     33 H10        170.7130   163.6050   132.7210 ha         1 UOV       0.110500
     34 H11        170.2280   162.5810   135.6960 hc         1 UOV       0.042367
     35 H12        171.6420   163.4410   136.2970 hc         1 UOV       0.042367
     36 H13        170.5700   164.2080   135.1130 hc         1 UOV       0.042367
     37 H14        173.2080   161.6250   135.5760 ha         1 UOV       0.110500
     38 H15        174.5230   160.6490   133.7560 ha         1 UOV       0.112500
     39 H16        174.5480   159.0900   132.0710 ha         1 UOV       0.115500
     40 H17        175.8660   158.1310   130.2500 ha         1 UOV       0.126000
     41 H18        176.4030   156.6310   120.9660 h1         1 UOV       0.053200
     42 H19        177.3200   158.0730   120.4540 h1         1 UOV       0.053200
     43 H20        175.3150   158.2750   124.6860 hc         1 UOV       0.066200
     44 H21        175.8630   156.6640   124.2030 hc         1 UOV       0.066200
     45 H22        175.2850   161.6930   127.9430 ha         1 UOV       0.126000
     46 H23        173.9890   162.6610   129.7710 ha         1 UOV       0.115500
     47 H24        176.5680   158.2290   128.0930 hn         1 UOV       0.148000
     48 C11        177.0850   159.8160   126.9110 c          1 UOV       0.655100
     49 C01        171.0330   163.2650   135.4090 c3         1 UOV      -0.045800
@<TRIPOS>BOND
     1     1     2 1   
     2     1    21 1   
     3     1    24 1   
     4     1    25 1   
     5     2     3 1   
     6     2    26 1   
     7     2    27 1   
     8     3     4 1   
     9     3    17 1   
    10     3    23 1   
    11     4    16 1   
    12     4    28 1   
    13     4    29 1   
    14     5    17 1   
    15     5    21 1   
    16     5    30 1   
    17     5    31 1   
    18     6     7 ar  
    19     6    11 ar  
    20     6    32 1   
    21     7     8 ar  
    22     7    33 1   
    23     8     9 ar  
    24     8    49 1   
    25     9    10 ar  
    26     9    37 1   
    27    10    11 ar  
    28    10    38 1   
    29    11    12 1   
    30    12    13 ar  
    31    12    19 ar  
    32    13    14 ar  
    33    13    39 1   
    34    14    15 ar  
    35    14    40 1   
    36    15    18 ar  
    37    15    20 1   
    38    16    23 1   
    39    16    41 1   
    40    16    42 1   
    41    17    43 1   
    42    17    44 1   
    43    18    19 ar  
    44    18    45 1   
    45    19    46 1   
    46    20    47 1   
    47    20    48 1   
    48    21    48 1   
    49    22    48 2   
    50    34    49 1   
    51    35    49 1   
    52    36    49 1   
@<TRIPOS>SUBSTRUCTURE
     1 UOV         1 TEMP              0 ****  ****    0 ROOT
