@<TRIPOS>MOLECULE
UOV
   49    52     1     0     0
SMALL
No Charge or Current Charge


@<TRIPOS>ATOM
      1 C14        177.1480   159.9580   124.0140 c6         1 UOV       0.100500
      2 C15        177.1890   159.0810   122.7420 c6         1 UOV      -0.108400
      3 C16        177.4150   157.5890   123.0790 cy         1 UOV       0.159000
      4 C17        178.8530   157.2320   123.5800 cy         1 UOV      -0.131400
      5 C21        176.2260   157.9560   125.3080 c6         1 UOV       0.100500
      6 C24        172.8850   162.9660   132.5440 ca         1 UOV      -0.099500
      7 C25        172.4020   163.4120   133.7860 ca         1 UOV      -0.111000
      8 C02        172.4020   162.5530   134.8990 ca         1 UOV      -0.075300
      9 C03        172.8950   161.2440   134.7570 ca         1 UOV      -0.111000
     10 C04        173.3770   160.7980   133.5140 ca         1 UOV      -0.099500
     11 C05        173.3830   161.6490   132.3810 cp         1 UOV      -0.030000
     12 C06        173.8980   161.1740   131.0560 cp         1 UOV      -0.060000
     13 C07        173.7210   159.8320   130.6390 ca         1 UOV      -0.072000
     14 C08        174.2050   159.3880   129.3960 ca         1 UOV      -0.149500
     15 C09        174.8790   160.2670   128.5290 ca         1 UOV      -0.005000
     16 C18        179.1160   156.9300   122.0720 cy         1 UOV       0.138600
     17 C20        176.2750   157.1310   124.0020 c6         1 UOV      -0.108400
     18 C22        175.0670   161.6060   128.9340 ca         1 UOV      -0.149500
     19 C23        174.5820   162.0490   130.1770 ca         1 UOV      -0.072000
     20 N10        175.3410   159.7420   127.2910 ns         1 UOV      -0.161000
     21 N13        176.2890   159.4460   125.1310 n          1 UOV      -0.418800
     22 O12        176.1800   161.5280   126.1020 o          1 UOV      -0.621100
     23 O19        177.6640   156.7110   121.9280 oq         1 UOV      -0.456000
     24 H1         178.1710   160.0720   124.3990 h1         1 UOV       0.058950
     25 H2         176.8090   160.9630   123.7220 h1         1 UOV       0.058950
     26 H3         177.9600   159.4630   122.0610 hc         1 UOV       0.066200
     27 H4         176.2350   159.1890   122.2080 hc         1 UOV       0.066200
     28 H5         178.9090   156.3500   124.2270 hc         1 UOV       0.061200
     29 H6         179.4430   158.0420   124.0190 hc         1 UOV       0.061200
     30 H7         175.3010   157.6780   125.8330 h1         1 UOV       0.058950
     31 H8         177.0660   157.6520   125.9490 h1         1 UOV       0.058950
     32 H9         172.8600   163.6470   131.6970 ha         1 UOV       0.112500
     33 H10        172.0240   164.4280   133.8820 ha         1 UOV       0.110500
     34 H11        171.0960   163.7910   136.1220 hc         1 UOV       0.042367
     35 H12        171.4580   162.2120   136.8300 hc         1 UOV       0.042367
     36 H13        172.6890   163.4870   136.8350 hc         1 UOV       0.042367
     37 H14        172.9080   160.5700   135.6110 ha         1 UOV       0.110500
     38 H15        173.7640   159.7850   133.4350 ha         1 UOV       0.112500
     39 H16        173.1920   159.1290   131.2770 ha         1 UOV       0.115500
     40 H17        174.0490   158.3520   129.1050 ha         1 UOV       0.126000
     41 H18        179.7020   156.0280   121.8620 h1         1 UOV       0.053200
     42 H19        179.4620   157.7850   121.4780 h1         1 UOV       0.053200
     43 H20        175.3170   157.2360   123.4770 hc         1 UOV       0.066200
     44 H21        176.3790   156.0640   124.2410 hc         1 UOV       0.066200
     45 H22        175.5920   162.3180   128.3070 ha         1 UOV       0.126000
     46 H23        174.7540   163.0830   130.4670 ha         1 UOV       0.115500
     47 H24        175.2020   158.7450   127.2010 hn         1 UOV       0.148000
     48 C11        175.9490   160.3290   126.1870 c          1 UOV       0.655100
     49 C01        171.8820   163.0370   136.2450 c3         1 UOV      -0.045800
@<TRIPOS>BOND
     1     1     2 1   
     2     1    21 1   
     3     1    24 1   
     4     1    25 1   
     5     2     3 1   
     6     2    26 1   
     7     2    27 1   
     8     3     4 1   
     9     3    17 1   
    10     3    23 1   
    11     4    16 1   
    12     4    28 1   
    13     4    29 1   
    14     5    17 1   
    15     5    21 1   
    16     5    30 1   
    17     5    31 1   
    18     6     7 ar  
    19     6    11 ar  
    20     6    32 1   
    21     7     8 ar  
    22     7    33 1   
    23     8     9 ar  
    24     8    49 1   
    25     9    10 ar  
    26     9    37 1   
    27    10    11 ar  
    28    10    38 1   
    29    11    12 1   
    30    12    13 ar  
    31    12    19 ar  
    32    13    14 ar  
    33    13    39 1   
    34    14    15 ar  
    35    14    40 1   
    36    15    18 ar  
    37    15    20 1   
    38    16    23 1   
    39    16    41 1   
    40    16    42 1   
    41    17    43 1   
    42    17    44 1   
    43    18    19 ar  
    44    18    45 1   
    45    19    46 1   
    46    20    47 1   
    47    20    48 1   
    48    21    48 1   
    49    22    48 2   
    50    34    49 1   
    51    35    49 1   
    52    36    49 1   
@<TRIPOS>SUBSTRUCTURE
     1 UOV         1 TEMP              0 ****  ****    0 ROOT
