@<TRIPOS>MOLECULE
UOW
   71    75     1     0     0
SMALL
No Charge or Current Charge


@<TRIPOS>ATOM
      1 C1          -2.4850    11.6970    47.6290 c3         1 UOW       0.152900
      2 C3          -1.2800    10.4960    49.4160 ca         1 UOW       0.584300
      3 C5           0.0380     8.4900    48.9840 ca         1 UOW      -0.015300
      4 C6           0.3400     8.4820    50.3550 ca         1 UOW      -0.201000
      5 C7          -0.1880     9.4830    51.1840 ca         1 UOW       0.379900
      6 C10         -0.4630     6.3750    47.6220 c3         1 UOW       0.150600
      7 C15          2.9290     9.2020    45.4970 c3         1 UOW       0.048700
      8 C16          2.1960    10.5550    45.3180 c3         1 UOW      -0.100100
      9 C19          6.6070    10.0350    45.2370 ca         1 UOW      -0.062300
     10 C21          9.0220    10.0180    45.0700 ca         1 UOW      -0.043000
     11 C22          9.0350     8.5920    45.0250 cp         1 UOW      -0.169500
     12 C23          7.7890     7.9080    45.0710 ca         1 UOW      -0.004000
     13 C24          6.6080     8.6550    45.1790 ca         1 UOW      -0.167600
     14 C25          5.2160     8.1810    45.2450 c          1 UOW       0.582600
     15 C27         10.3270     7.8460    44.8940 cp         1 UOW       0.239500
     16 C31         13.0550     9.3090    41.9920 c6         1 UOW       0.247500
     17 C35         12.0710     9.9780    39.7530 c6         1 UOW       0.157600
     18 C36         12.1870     8.8450    40.7980 c6         1 UOW      -0.132400
     19 C38         11.9180     6.0980    45.4160 ca         1 UOW       0.166900
     20 C39         10.6660     6.6920    45.6570 ca         1 UOW      -0.063000
     21 O2          -2.0920    11.5300    49.0030 os         1 UOW      -0.445300
     22 C4          -0.7910     9.5260    48.5140 ca         1 UOW      -0.221000
     23 N8          -0.9840    10.4730    50.7280 nb         1 UOW      -0.696000
     24 C9           0.6050     7.4210    48.0470 c3         1 UOW       0.156000
     25 N12          1.2390     8.0350    46.8760 ns         1 UOW      -0.496900
     26 O14          3.2540     8.4910    47.8250 o          1 UOW      -0.589100
     27 N17          4.4050     9.3250    45.3260 n          1 UOW      -0.403800
     28 C18          5.1970    10.6000    45.3510 c5         1 UOW       0.145300
     29 C20          7.8160    10.7410    45.1800 ca         1 UOW      -0.111000
     30 O26          4.8330     7.0190    45.2210 o          1 UOW      -0.544000
     31 N28         11.2080     8.3410    44.0020 nb         1 UOW      -0.255000
     32 C29         12.3750     7.6920    43.8430 ca         1 UOW       0.393900
     33 N30         13.2840     8.1910    42.9200 nu         1 UOW      -0.915100
     34 C32         14.4160     9.8420    41.4900 c6         1 UOW      -0.132400
     35 C33         14.1960    10.9320    40.4160 c6         1 UOW       0.157600
     36 O34         13.3880    10.4020    39.3430 os         1 UOW      -0.448000
     37 N37         12.7760     6.5940    44.5030 nb         1 UOW      -0.240000
     38 Cl1          9.6300     6.0170    46.9170 cl         1 UOW      -0.166000
     39 H44         -3.1260    12.5810    47.5220 h1         1 UOW       0.041700
     40 H43         -1.6070    11.8350    46.9850 h1         1 UOW       0.041700
     41 H45         -3.0490    10.8250    47.2740 h1         1 UOW       0.041700
     42 H47          0.9770     7.7130    50.7840 ha         1 UOW       0.124000
     43 H48          0.0350     9.4920    52.2500 h4         1 UOW       0.022100
     44 H49         -1.0250     6.0550    48.5100 h1         1 UOW       0.037200
     45 H50          0.0570     5.4920    47.2270 h1         1 UOW       0.037200
     46 H42          2.5680     8.5270    44.7090 h1         1 UOW       0.079700
     47 H53          1.1090    10.4180    45.3580 hc         1 UOW       0.049033
     48 H55          2.4780    11.2610    46.1080 hc         1 UOW       0.049033
     49 H54          2.4400    11.0020    44.3470 hc         1 UOW       0.049033
     50 H59          9.9600    10.5680    45.0280 ha         1 UOW       0.128000
     51 H60          7.7410     6.8230    45.0060 ha         1 UOW       0.144000
     52 H62         12.5410    10.1370    42.5080 h1         1 UOW       0.075700
     53 H68         11.5260    10.8350    40.1760 h1         1 UOW       0.047700
     54 H67         11.5180     9.6220    38.8720 h1         1 UOW       0.047700
     55 H69         11.1860     8.5550    41.1400 hc         1 UOW       0.059200
     56 H70         12.6320     7.9580    40.3260 hc         1 UOW       0.059200
     57 H71         12.2430     5.2170    45.9670 h4         1 UOW       0.036100
     58 H46         -1.0440     9.5640    47.4610 ha         1 UOW       0.123000
     59 H41          1.3810     6.8700    48.5970 h1         1 UOW       0.089700
     60 H51         -2.0100     6.1970    46.4170 ho         1 UOW       0.450000
     61 H52          0.6830     8.1080    46.0320 hn         1 UOW       0.327500
     62 H56          5.0580    11.1520    46.2900 h1         1 UOW       0.070700
     63 H57          4.9550    11.2530    44.5020 h1         1 UOW       0.070700
     64 H58          7.8250    11.8280    45.2190 ha         1 UOW       0.123000
     65 H61         14.1520     7.6600    42.8380 hn         1 UOW       0.507000
     66 H63         15.0140     9.0270    41.0600 hc         1 UOW       0.059200
     67 H64         14.9940    10.2570    42.3270 hc         1 UOW       0.059200
     68 H65         15.1630    11.2600    40.0090 h1         1 UOW       0.047700
     69 H66         13.6940    11.8070    40.8540 h1         1 UOW       0.047700
     70 O11         -1.3540     6.9020    46.6180 oh         1 UOW      -0.666000
     71 C13          2.5170     8.5480    46.8480 c          1 UOW       0.581100
@<TRIPOS>BOND
     1     1    21 1   
     2     1    39 1   
     3     1    40 1   
     4     1    41 1   
     5     2    21 1   
     6     2    22 ar  
     7     2    23 ar  
     8     3     4 ar  
     9     3    22 ar  
    10     3    24 1   
    11     4     5 ar  
    12     4    42 1   
    13     5    23 ar  
    14     5    43 1   
    15     6    24 1   
    16     6    44 1   
    17     6    45 1   
    18     6    70 1   
    19     7     8 1   
    20     7    27 1   
    21     7    46 1   
    22     7    71 1   
    23     8    47 1   
    24     8    48 1   
    25     8    49 1   
    26     9    13 ar  
    27     9    28 1   
    28     9    29 ar  
    29    10    11 ar  
    30    10    29 ar  
    31    10    50 1   
    32    11    12 ar  
    33    11    15 1   
    34    12    13 ar  
    35    12    51 1   
    36    13    14 1   
    37    14    27 1   
    38    14    30 2   
    39    15    20 ar  
    40    15    31 ar  
    41    16    18 1   
    42    16    33 1   
    43    16    34 1   
    44    16    52 1   
    45    17    18 1   
    46    17    36 1   
    47    17    53 1   
    48    17    54 1   
    49    18    55 1   
    50    18    56 1   
    51    19    20 ar  
    52    19    37 ar  
    53    19    57 1   
    54    20    38 1   
    55    22    58 1   
    56    24    25 1   
    57    24    59 1   
    58    25    61 1   
    59    25    71 1   
    60    26    71 2   
    61    27    28 1   
    62    28    62 1   
    63    28    63 1   
    64    29    64 1   
    65    31    32 ar  
    66    32    33 1   
    67    32    37 ar  
    68    33    65 1   
    69    34    35 1   
    70    34    66 1   
    71    34    67 1   
    72    35    36 1   
    73    35    68 1   
    74    35    69 1   
    75    60    70 1   
@<TRIPOS>SUBSTRUCTURE
     1 UOW         1 TEMP              0 ****  ****    0 ROOT
