@<TRIPOS>MOLECULE
UOW
   71    75     1     0     0
SMALL
abcg2


@<TRIPOS>ATOM
      1 C1          -1.6560    11.8070    47.0040 c3         1 UOW       0.152900
      2 C3          -1.0790    10.6520    48.9950 ca         1 UOW       0.584300
      3 C5           0.2430     8.6600    48.9940 ca         1 UOW      -0.015300
      4 C6           0.1310     8.6560    50.3810 ca         1 UOW      -0.201000
      5 C7          -0.5920     9.6710    50.9810 ca         1 UOW       0.379900
      6 C10          0.1270     6.3090    48.1360 c3         1 UOW       0.150600
      7 C15          2.9060     9.1460    45.4350 c3         1 UOW       0.048700
      8 C16          2.2190    10.4830    45.1810 c3         1 UOW      -0.100100
      9 C19          6.5260     9.8700    45.2540 ca         1 UOW      -0.062300
     10 C21          8.8960     9.7650    45.1060 ca         1 UOW      -0.043000
     11 C22          8.8440     8.3740    44.9490 cp         1 UOW      -0.169500
     12 C23          7.6120     7.7300    44.9240 ca         1 UOW      -0.004000
     13 C24          6.4740     8.5000    45.0700 ca         1 UOW      -0.167600
     14 C25          5.0620     8.0750    45.0900 c          1 UOW       0.582600
     15 C27         10.1070     7.6300    44.7600 cp         1 UOW       0.239500
     16 C31         12.7890     9.3150    42.1130 c6         1 UOW       0.247500
     17 C35         11.8470    10.3420    40.0390 c6         1 UOW       0.157600
     18 C36         11.9640     9.0610    40.8520 c6         1 UOW      -0.132400
     19 C38         11.6370     5.8500    45.1120 ca         1 UOW       0.166900
     20 C39         10.4160     6.4400    45.4160 ca         1 UOW      -0.063000
     21 O2          -1.7100    11.6790    48.4130 os         1 UOW      -0.445300
     22 C4          -0.3760     9.6760    48.2850 ca         1 UOW      -0.221000
     23 N8          -1.1860    10.6510    50.3120 nb         1 UOW      -0.696000
     24 C9           0.9980     7.5480    48.2970 c3         1 UOW       0.156000
     25 N12          1.5100     7.9410    47.0070 ns         1 UOW      -0.496900
     26 O14          3.3410     9.0020    47.7960 o          1 UOW      -0.589100
     27 N17          4.3290     9.2090    45.2220 n          1 UOW      -0.403800
     28 C18          5.1360    10.4010    45.4040 c5         1 UOW       0.145300
     29 C20          7.7470    10.5240    45.2700 ca         1 UOW      -0.111000
     30 O26          4.6170     6.9420    45.0170 o          1 UOW      -0.544000
     31 N28         10.9790     8.1700    43.9190 nb         1 UOW      -0.255000
     32 C29         12.1360     7.5430    43.7050 ca         1 UOW       0.393900
     33 N30         13.0280     8.1130    42.8800 nu         1 UOW      -0.915100
     34 C32         14.1170     9.9570    41.7300 c6         1 UOW      -0.132400
     35 C33         13.8680    11.1810    40.8600 c6         1 UOW       0.157600
     36 O34         13.1120    10.8730    39.7120 os         1 UOW      -0.448000
     37 N37         12.4920     6.3740    44.2630 nb         1 UOW      -0.240000
     38 CL1          9.4040     5.7070    46.6060 cl         1 UOW      -0.166000
     39 H44         -2.2160    12.7050    46.7560 h1         1 UOW       0.041700
     40 H43         -0.6310    11.9200    46.6430 h1         1 UOW       0.041700
     41 H45         -2.1170    10.9540    46.4990 h1         1 UOW       0.041700
     42 H47          0.6020     7.8900    50.9830 ha         1 UOW       0.124000
     43 H48         -0.6930     9.7010    52.0610 h4         1 UOW       0.022100
     44 H49         -0.2240     6.0000    49.1280 h1         1 UOW       0.037200
     45 H50          0.7520     5.4990    47.7430 h1         1 UOW       0.037200
     46 H42          2.4980     8.4140    44.7320 h1         1 UOW       0.079700
     47 H53          1.1390    10.3630    45.2620 hc         1 UOW       0.049033
     48 H55          2.5250    11.2460    45.8970 hc         1 UOW       0.049033
     49 H54          2.4370    10.8410    44.1750 hc         1 UOW       0.049033
     50 H59          9.8600    10.2570    45.1100 ha         1 UOW       0.128000
     51 H60          7.5320     6.6620    44.7690 ha         1 UOW       0.144000
     52 H62         12.2410    10.0160    42.7500 h1         1 UOW       0.075700
     53 H68         11.2570    11.0800    40.6030 h1         1 UOW       0.047700
     54 H67         11.3240    10.1550    39.1000 h1         1 UOW       0.047700
     55 H69         10.9660     8.7040    41.1140 hc         1 UOW       0.059200
     56 H70         12.4460     8.2820    40.2530 hc         1 UOW       0.059200
     57 H71         11.9210     4.9170    45.5880 h4         1 UOW       0.036100
     58 H46         -0.3020     9.7090    47.2070 ha         1 UOW       0.123000
     59 H41          1.8390     7.2580    48.9310 h1         1 UOW       0.089700
     60 H51         -1.3610     5.8010    46.9980 ho         1 UOW       0.450000
     61 H52          0.9440     7.7380    46.1970 hn         1 UOW       0.327500
     62 H56          4.9800    10.8450    46.3900 h1         1 UOW       0.070700
     63 H57          4.9100    11.1640    44.6540 h1         1 UOW       0.070700
     64 H58          7.8150    11.5950    45.4050 ha         1 UOW       0.123000
     65 H61         13.8470     7.5660    42.6630 hn         1 UOW       0.507000
     66 H63         14.7350     9.2360    41.1850 hc         1 UOW       0.059200
     67 H64         14.6710    10.2550    42.6220 hc         1 UOW       0.059200
     68 H65         14.8140    11.6030    40.5170 h1         1 UOW       0.047700
     69 H66         13.3610    11.9530    41.4570 h1         1 UOW       0.047700
     70 O11         -0.9350     6.6200    47.2690 oh         1 UOW      -0.666000
     71 C13          2.6200     8.6840    46.8660 c          1 UOW       0.581100
@<TRIPOS>BOND
     1     1    21 1   
     2     1    39 1   
     3     1    40 1   
     4     1    41 1   
     5     2    21 1   
     6     2    22 ar  
     7     2    23 ar  
     8     3     4 ar  
     9     3    22 ar  
    10     3    24 1   
    11     4     5 ar  
    12     4    42 1   
    13     5    23 ar  
    14     5    43 1   
    15     6    24 1   
    16     6    44 1   
    17     6    45 1   
    18     6    70 1   
    19     7     8 1   
    20     7    27 1   
    21     7    46 1   
    22     7    71 1   
    23     8    47 1   
    24     8    48 1   
    25     8    49 1   
    26     9    13 ar  
    27     9    28 1   
    28     9    29 ar  
    29    10    11 ar  
    30    10    29 ar  
    31    10    50 1   
    32    11    12 ar  
    33    11    15 1   
    34    12    13 ar  
    35    12    51 1   
    36    13    14 1   
    37    14    27 1   
    38    14    30 2   
    39    15    20 ar  
    40    15    31 ar  
    41    16    18 1   
    42    16    33 1   
    43    16    34 1   
    44    16    52 1   
    45    17    18 1   
    46    17    36 1   
    47    17    53 1   
    48    17    54 1   
    49    18    55 1   
    50    18    56 1   
    51    19    20 ar  
    52    19    37 ar  
    53    19    57 1   
    54    20    38 1   
    55    22    58 1   
    56    24    25 1   
    57    24    59 1   
    58    25    61 1   
    59    25    71 1   
    60    26    71 2   
    61    27    28 1   
    62    28    62 1   
    63    28    63 1   
    64    29    64 1   
    65    31    32 ar  
    66    32    33 1   
    67    32    37 ar  
    68    33    65 1   
    69    34    35 1   
    70    34    66 1   
    71    34    67 1   
    72    35    36 1   
    73    35    68 1   
    74    35    69 1   
    75    60    70 1   
@<TRIPOS>SUBSTRUCTURE
     1 UOW         1 TEMP              0 ****  ****    0 ROOT
