@<TRIPOS>MOLECULE
UOX
   14    13     1     0     0
SMALL
No Charge or Current Charge


@<TRIPOS>ATOM
      1 N           -1.0870     1.8100    -0.3400 n8         1 UOX      -0.880800
      2 CA          -1.1810     0.2890    -0.3530 c3         1 UOX       0.020500
      3 CB          -0.0970    -0.3870     0.5300 c3         1 UOX       0.164900
      4 SE           1.6360     0.0830     0.0220 s4         1 UOX      -0.327100
      5 OD           2.5940    -0.7380     0.8530 o          1 UOX      -0.448200
      6 C           -2.5820    -0.3450     0.0150 c          1 UOX       0.942600
      7 O           -2.9570    -0.3130     1.1850 o          1 UOX      -0.816300
      8 H1          -1.2130     2.1620     0.6160 hn         1 UOX       0.324300
      9 H2          -0.1520     2.1120    -0.6280 hn         1 UOX       0.324300
     10 H4          -0.9830    -0.0220    -1.3880 h1         1 UOX       0.051700
     11 H5          -0.2380    -0.1190     1.5860 h1         1 UOX       0.083700
     12 H6          -0.1850    -1.4780     0.4390 h1         1 UOX       0.083700
     13 O1          -3.2640    -0.8310    -0.8830 o          1 UOX      -0.816300
     14 H3           1.4480     1.3680     0.5660 hs         1 UOX       0.293000
@<TRIPOS>BOND
     1     1     2 1   
     2     1     8 1   
     3     1     9 1   
     4     2     3 1   
     5     2     6 1   
     6     2    10 1   
     7     3     4 1   
     8     3    11 1   
     9     3    12 1   
    10     4     5 2   
    11     4    14 1   
    12     6     7 1   
    13     6    13 1   
@<TRIPOS>SUBSTRUCTURE
     1 UOX         1 TEMP              0 ****  ****    0 ROOT
