@<TRIPOS>MOLECULE
UOX
   14    13     1     0     0
SMALL
bcc


@<TRIPOS>ATOM
      1 N           -1.1900     1.8000    -0.1300 n8         1 UOX      -0.880800
      2 CA          -1.1890     0.3690    -0.3530 c3         1 UOX       0.020500
      3 CB          -0.1260    -0.4290     0.4140 c3         1 UOX       0.164900
      4 SE           1.7180    -0.0490    -0.1440 s4         1 UOX      -0.327100
      5 OD           2.6690    -0.8760     0.9200 o          1 UOX      -0.448200
      6 C           -2.5650    -0.2560     0.0230 c          1 UOX       0.942600
      7 O           -3.3440     0.4450     0.6900 o          1 UOX      -0.816300
      8 H1          -1.3910     2.0010     0.8400 hn         1 UOX       0.324300
      9 H2          -0.2980     2.2230    -0.3490 hn         1 UOX       0.324300
     10 H4          -1.0410     0.1950    -1.4250 h1         1 UOX       0.051700
     11 H5          -0.1820    -0.2490     1.4910 h1         1 UOX       0.083700
     12 H6          -0.2480    -1.4980     0.2320 h1         1 UOX       0.083700
     13 O1          -2.7430    -1.4270    -0.3630 o          1 UOX      -0.816300
     14 H3           1.6700     1.3410     0.3750 hs         1 UOX       0.293000
@<TRIPOS>BOND
     1     1     2 1   
     2     1     8 1   
     3     1     9 1   
     4     2     3 1   
     5     2     6 1   
     6     2    10 1   
     7     3     4 1   
     8     3    11 1   
     9     3    12 1   
    10     4     5 2   
    11     4    14 1   
    12     6     7 1   
    13     6    13 1   
@<TRIPOS>SUBSTRUCTURE
     1 UOX         1 TEMP              0 ****  ****    0 ROOT
