@<TRIPOS>MOLECULE
UOY
   46    47     1     0     0
SMALL
bcc


@<TRIPOS>ATOM
      1 C2         -33.4590    39.5670    15.7520 c          1 UOY       0.679700
      2 C3         -33.6070    38.1520    16.2030 ca         1 UOY      -0.265900
      3 C5         -34.8950    36.4690    17.3390 ca         1 UOY      -0.325300
      4 C7         -34.7740    33.8560    18.4060 ca         1 UOY       0.116100
      5 C9         -36.6310    32.4260    18.8810 ca         1 UOY      -0.119500
      6 C10        -36.6100    32.8390    20.2060 ca         1 UOY      -0.140000
      7 C11        -35.6610    33.7640    20.6260 ca         1 UOY      -0.119500
      8 C12        -34.7340    34.2750    19.7280 ca         1 UOY      -0.139000
      9 C13        -32.6180    37.1890    16.0470 ca         1 UOY       0.449200
     10 C18        -28.6750    41.0210    12.9340 c3         1 UOY      -0.078433
     11 C          -33.5780    41.6030    13.3050 c          1 UOY       0.928600
     12 O2         -34.4010    40.7660    12.9000 o          1 UOY      -0.824800
     13 C1         -32.3870    41.0840    14.1640 c3         1 UOY      -0.044300
     14 C14        -31.1130    41.0650    13.3120 c3         1 UOY      -0.066400
     15 C17        -29.5630    42.3080    14.8660 c3         1 UOY      -0.078433
     16 C16        -29.5600    39.8130    14.9150 c3         1 UOY      -0.078433
     17 N          -32.6330    39.7730    14.7210 ns         1 UOY      -0.512900
     18 O1         -34.0500    40.4680    16.3370 o          1 UOY      -0.615100
     19 N1         -32.7230    35.9460    16.4950 nb         1 UOY      -0.709000
     20 C6         -33.8280    35.5970    17.1200 ca         1 UOY       0.638600
     21 C4         -34.7620    37.7630    16.8810 ca         1 UOY      -0.020000
     22 O          -33.8310    34.3060    17.5100 os         1 UOY      -0.368400
     23 C8         -35.7150    32.9370    17.9710 ca         1 UOY      -0.139000
     24 H1         -35.7970    36.1570    17.8470 ha         1 UOY       0.146000
     25 H2         -37.3650    31.7050    18.5480 ha         1 UOY       0.130000
     26 H3         -37.3270    32.4400    20.9100 ha         1 UOY       0.128000
     27 H4         -35.6350    34.0860    21.6580 ha         1 UOY       0.130000
     28 H5         -33.9880    34.9870    20.0550 ha         1 UOY       0.149500
     29 H6         -31.6790    37.4280    15.5600 h4         1 UOY       0.026100
     30 H7         -27.6720    41.0300    13.3670 hc         1 UOY       0.025144
     31 H8         -28.7610    40.1270    12.3130 hc         1 UOY       0.025144
     32 H9         -28.7610    41.8900    12.2770 hc         1 UOY       0.025144
     33 H11        -32.2570    41.7860    14.9910 h1         1 UOY       0.065700
     34 H12        -31.1330    41.9590    12.6850 hc         1 UOY       0.048200
     35 H13        -31.1690    40.2120    12.6240 hc         1 UOY       0.048200
     36 H14        -30.2860    42.3700    15.6820 hc         1 UOY       0.025144
     37 H15        -28.5680    42.3310    15.3160 hc         1 UOY       0.025144
     38 H16        -29.6730    43.2070    14.2560 hc         1 UOY       0.025144
     39 H17        -30.2250    39.8230    15.7790 hc         1 UOY       0.025144
     40 H18        -29.7450    38.8880    14.3640 hc         1 UOY       0.025144
     41 H19        -28.5350    39.7730    15.2920 hc         1 UOY       0.025144
     42 H20        -32.3350    38.9810    14.1750 hn         1 UOY       0.297500
     43 H21        -35.5640    38.4710    17.0400 ha         1 UOY       0.162000
     44 H22        -35.7260    32.6210    16.9350 ha         1 UOY       0.149500
     45 O3         -33.5650    42.8300    13.0830 o          1 UOY      -0.824800
     46 C15        -29.7480    41.0440    14.0260 c3         1 UOY      -0.049000
@<TRIPOS>BOND
     1     1     2 1   
     2     1    17 1   
     3     1    18 2   
     4     2     9 ar  
     5     2    21 ar  
     6     3    20 ar  
     7     3    21 ar  
     8     3    24 1   
     9     4     8 ar  
    10     4    22 1   
    11     4    23 ar  
    12     5     6 ar  
    13     5    23 ar  
    14     5    25 1   
    15     6     7 ar  
    16     6    26 1   
    17     7     8 ar  
    18     7    27 1   
    19     8    28 1   
    20     9    19 ar  
    21     9    29 1   
    22    10    30 1   
    23    10    31 1   
    24    10    32 1   
    25    10    46 1   
    26    11    12 1   
    27    11    13 1   
    28    11    45 1   
    29    13    14 1   
    30    13    17 1   
    31    13    33 1   
    32    14    34 1   
    33    14    35 1   
    34    14    46 1   
    35    15    36 1   
    36    15    37 1   
    37    15    38 1   
    38    15    46 1   
    39    16    39 1   
    40    16    40 1   
    41    16    41 1   
    42    16    46 1   
    43    17    42 1   
    44    19    20 ar  
    45    20    22 1   
    46    21    43 1   
    47    23    44 1   
@<TRIPOS>SUBSTRUCTURE
     1 UOY         1 TEMP              0 ****  ****    0 ROOT
