@<TRIPOS>MOLECULE
UOY
   46    47     1     0     0
SMALL
No Charge or Current Charge


@<TRIPOS>ATOM
      1 C2         -33.5800    39.6560    15.3640 c          1 UOY       0.612700
      2 C3         -34.0310    38.2770    15.7570 ca         1 UOY      -0.200600
      3 C5         -35.1760    36.7780    17.2650 ca         1 UOY      -0.242000
      4 C7         -35.2180    33.9380    18.0140 ca         1 UOY       0.116100
      5 C9         -36.3000    32.5600    19.7070 ca         1 UOY      -0.101500
      6 C10        -35.2800    32.8810    20.6200 ca         1 UOY      -0.122000
      7 C11        -34.2230    33.7220    20.2290 ca         1 UOY      -0.101500
      8 C12        -34.1880    34.2480    18.9250 ca         1 UOY      -0.121000
      9 C13        -33.7240    37.1480    14.9760 ca         1 UOY       0.383900
     10 C18        -28.3470    40.9230    14.0280 c3         1 UOY      -0.078433
     11 C          -33.0850    41.4200    12.3370 c          1 UOY       0.718000
     12 O2         -33.1290    40.6140    11.4160 o          1 UOY      -0.719500
     13 C1         -32.3110    41.0290    13.6340 c3         1 UOY      -0.044300
     14 C14        -30.7800    40.9300    13.3600 c3         1 UOY      -0.066400
     15 C17        -29.9810    42.2390    15.4230 c3         1 UOY      -0.078433
     16 C16        -29.9850    39.7060    15.4970 c3         1 UOY      -0.078433
     17 N          -32.8720    39.7690    14.1830 ns         1 UOY      -0.445900
     18 O1         -33.8270    40.6310    16.0600 o          1 UOY      -0.615100
     19 N1         -34.1060    35.8920    15.2960 nb         1 UOY      -0.709000
     20 C6         -34.8110    35.7100    16.4280 ca         1 UOY       0.573300
     21 C4         -34.7800    38.0820    16.9340 ca         1 UOY      -0.002000
     22 O          -35.2040    34.4300    16.7290 os         1 UOY      -0.368400
     23 C8         -36.2650    33.0870    18.4030 ca         1 UOY      -0.121000
     24 H1         -35.7650    36.5980    18.1590 ha         1 UOY       0.128000
     25 H2         -37.1140    31.9050    20.0080 ha         1 UOY       0.112000
     26 H3         -35.3050    32.4730    21.6280 ha         1 UOY       0.110000
     27 H4         -33.4300    33.9630    20.9340 ha         1 UOY       0.112000
     28 H5         -33.3620    34.8880    18.6270 ha         1 UOY       0.131500
     29 H6         -33.1490    37.2320    14.0550 h4         1 UOY       0.026100
     30 H7         -27.6120    40.9410    14.8430 hc         1 UOY       0.025144
     31 H8         -28.1680    40.0180    13.4350 hc         1 UOY       0.025144
     32 H9         -28.1550    41.7910    13.3860 hc         1 UOY       0.025144
     33 H11        -32.4880    41.8430    14.3460 h1         1 UOY       0.065700
     34 H12        -30.5150    41.7770    12.7130 hc         1 UOY       0.048200
     35 H13        -30.5910    40.0330    12.7570 hc         1 UOY       0.048200
     36 H14        -30.9610    42.2630    15.9140 hc         1 UOY       0.025144
     37 H15        -29.2190    42.3030    16.2100 hc         1 UOY       0.025144
     38 H16        -29.8920    43.1330    14.7940 hc         1 UOY       0.025144
     39 H17        -30.9250    39.7560    16.0540 hc         1 UOY       0.025144
     40 H18        -29.9770    38.7790    14.9100 hc         1 UOY       0.025144
     41 H19        -29.1780    39.6430    16.2370 hc         1 UOY       0.025144
     42 H20        -32.7400    38.9250    13.6410 hn         1 UOY       0.297500
     43 H21        -35.0530    38.9180    17.5760 ha         1 UOY       0.144000
     44 H22        -37.0520    32.8380    17.6950 ha         1 UOY       0.131500
     45 O3         -33.6710    42.4940    12.3150 o          1 UOY      -0.719500
     46 C15        -29.7980    40.9470    14.5820 c3         1 UOY      -0.049000
@<TRIPOS>BOND
     1     1     2 1   
     2     1    17 1   
     3     1    18 2   
     4     2     9 ar  
     5     2    21 ar  
     6     3    20 ar  
     7     3    21 ar  
     8     3    24 1   
     9     4     8 ar  
    10     4    22 1   
    11     4    23 ar  
    12     5     6 ar  
    13     5    23 ar  
    14     5    25 1   
    15     6     7 ar  
    16     6    26 1   
    17     7     8 ar  
    18     7    27 1   
    19     8    28 1   
    20     9    19 ar  
    21     9    29 1   
    22    10    30 1   
    23    10    31 1   
    24    10    32 1   
    25    10    46 1   
    26    11    12 1   
    27    11    13 1   
    28    11    45 1   
    29    13    14 1   
    30    13    17 1   
    31    13    33 1   
    32    14    34 1   
    33    14    35 1   
    34    14    46 1   
    35    15    36 1   
    36    15    37 1   
    37    15    38 1   
    38    15    46 1   
    39    16    39 1   
    40    16    40 1   
    41    16    41 1   
    42    16    46 1   
    43    17    42 1   
    44    19    20 ar  
    45    20    22 1   
    46    21    43 1   
    47    23    44 1   
@<TRIPOS>SUBSTRUCTURE
     1 UOY         1 TEMP              0 ****  ****    0 ROOT
