@<TRIPOS>MOLECULE
UP0
   43    43     1     0     0
SMALL
abcg2


@<TRIPOS>ATOM
      1 C1          75.7440    99.5260    85.2560 c3         1 UP0      -0.081100
      2 C2          76.3240   100.5240    86.2580 c3         1 UP0      -0.074400
      3 C4          76.5700   102.4660    84.5990 c3         1 UP0      -0.011500
      4 O8          74.6090   103.8660    84.0560 oh         1 UP0      -0.704000
      5 C9          76.6170   104.3270    82.9010 c          1 UP0       0.600100
      6 C11         76.1380   103.5940    81.6680 c3         1 UP0      -0.197400
      7 C15         78.3660   102.4590    81.0070 c2         1 UP0      -0.077400
      8 C16         79.5050   102.4780    80.3090 c2         1 UP0      -0.211200
      9 C17         79.8600   103.3470    79.1440 c3         1 UP0      -0.037900
     10 C19         78.7910   102.0630    83.4760 ce         1 UP0      -0.163400
     11 C24         80.3170   102.1380    83.4610 c          1 UP0       0.727200
     12 C3          75.9980   101.9860    85.9390 c3         1 UP0      -0.054400
     13 C6          76.0350   103.8690    84.2330 c3         1 UP0       0.071300
     14 O10         77.3940   105.2570    82.8280 o          1 UP0      -0.494100
     15 C12         77.2130   103.3610    80.6060 c3         1 UP0       0.217500
     16 O14         76.5960   102.7460    79.4530 oh         1 UP0      -0.683000
     17 C18         78.2190   101.5060    82.1830 c3         1 UP0       0.006000
     18 C20         78.0870   102.4540    84.5470 cf         1 UP0      -0.200400
     19 O22         78.5480   104.1930    86.0980 o          1 UP0      -0.746000
     20 O23         79.5170   102.2030    86.4410 o          1 UP0      -0.746000
     21 O25         80.8490   103.2710    83.5680 o          1 UP0      -0.741000
     22 O26         80.9250   101.0470    83.2990 o          1 UP0      -0.741000
     23 H1          75.9220    98.4990    85.5810 hc         1 UP0       0.015033
     24 H2          74.6630    99.6610    85.1500 hc         1 UP0       0.015033
     25 H3          76.1910    99.6400    84.2670 hc         1 UP0       0.015033
     26 H4          75.9350   100.2960    87.2550 hc         1 UP0       0.049700
     27 H5          77.4080   100.4000    86.3130 hc         1 UP0       0.049700
     28 H6          76.1880   101.7980    83.8290 hc         1 UP0       0.020700
     29 H7          74.2000   104.0650    84.9060 ho         1 UP0       0.427000
     30 H8          75.3650   104.2330    81.2280 hc         1 UP0       0.048700
     31 H9          75.6490   102.6600    81.9340 hc         1 UP0       0.048700
     32 H10         80.2810   101.7800    80.6110 ha         1 UP0       0.201000
     33 H11         80.8130   103.8530    79.3230 hc         1 UP0       0.017367
     34 H12         79.9960   102.7400    78.2420 hc         1 UP0       0.017367
     35 H13         79.1050   104.1000    78.9230 hc         1 UP0       0.017367
     36 H14         76.3700   102.6280    86.7420 hc         1 UP0       0.024700
     37 H15         74.9110   102.1040    85.9160 hc         1 UP0       0.024700
     38 H16         76.3300   104.5880    84.9950 h1         1 UP0       0.100700
     39 H17         77.6120   104.3340    80.3140 h1         1 UP0       0.039700
     40 H18         75.8960   103.3340    79.1380 ho         1 UP0       0.408000
     41 H19         77.1810   101.2050    82.3030 hc         1 UP0       0.032200
     42 H20         78.7840   100.6000    81.9570 hc         1 UP0       0.032200
     43 C21         78.7880   102.9940    85.7910 c          1 UP0       0.734200
@<TRIPOS>BOND
     1     1     2 1   
     2     1    23 1   
     3     1    24 1   
     4     1    25 1   
     5     2    12 1   
     6     2    26 1   
     7     2    27 1   
     8     3    12 1   
     9     3    13 1   
    10     3    18 1   
    11     3    28 1   
    12     4    13 1   
    13     4    29 1   
    14     5     6 1   
    15     5    13 1   
    16     5    14 2   
    17     6    15 1   
    18     6    30 1   
    19     6    31 1   
    20     7     8 2   
    21     7    15 1   
    22     7    17 1   
    23     8     9 1   
    24     8    32 1   
    25     9    33 1   
    26     9    34 1   
    27     9    35 1   
    28    10    11 1   
    29    10    17 1   
    30    10    18 2   
    31    11    21 1   
    32    11    22 1   
    33    12    36 1   
    34    12    37 1   
    35    13    38 1   
    36    15    16 1   
    37    15    39 1   
    38    16    40 1   
    39    17    41 1   
    40    17    42 1   
    41    18    43 1   
    42    19    43 1   
    43    20    43 1   
@<TRIPOS>SUBSTRUCTURE
     1 UP0         1 TEMP              0 ****  ****    0 ROOT
