@<TRIPOS>MOLECULE
UP0
   43    43     1     0     0
SMALL
No Charge or Current Charge


@<TRIPOS>ATOM
      1 C1          75.9150    99.5080    85.2500 c3         1 UP0      -0.081100
      2 C2          76.2560   100.5900    86.2960 c3         1 UP0      -0.074400
      3 C4          76.5370   102.5860    84.5950 c3         1 UP0      -0.011500
      4 O8          74.6530   104.1780    84.2780 oh         1 UP0      -0.704000
      5 C9          76.6520   104.4340    82.8080 c          1 UP0       0.600100
      6 C11         76.0920   103.6640    81.6010 c3         1 UP0      -0.197400
      7 C15         78.3860   102.4770    80.9960 c2         1 UP0      -0.077400
      8 C16         79.5570   102.5330    80.3230 c2         1 UP0      -0.211200
      9 C17         79.8930   103.3460    79.0840 c3         1 UP0      -0.037900
     10 C19         78.8180   102.0080    83.5000 ce         1 UP0      -0.163400
     11 C24         80.3420   102.0070    83.5000 c          1 UP0       0.727200
     12 C3          75.8500   102.0310    85.8890 c3         1 UP0      -0.054400
     13 C6          76.1010   104.0340    84.2130 c3         1 UP0       0.071300
     14 O10         77.4150   105.3830    82.6590 o          1 UP0      -0.494100
     15 C12         77.1520   103.2850    80.5510 c3         1 UP0       0.217500
     16 O14         76.4840   102.5680    79.5080 oh         1 UP0      -0.683000
     17 C18         78.2080   101.5010    82.1700 c3         1 UP0       0.006000
     18 C20         78.0820   102.4720    84.5900 cf         1 UP0      -0.200400
     19 O22         78.3210   103.7990    86.5370 o          1 UP0      -0.746000
     20 O23         79.6560   102.1410    86.3300 o          1 UP0      -0.746000
     21 O25         80.9320   102.9960    83.9150 o          1 UP0      -0.741000
     22 O26         80.9350   101.0850    82.9560 o          1 UP0      -0.741000
     23 H1          76.1380    98.5110    85.6500 hc         1 UP0       0.015033
     24 H2          74.8510    99.5410    84.9890 hc         1 UP0       0.015033
     25 H3          76.5040    99.6430    84.3360 hc         1 UP0       0.015033
     26 H4          75.7410   100.3390    87.2320 hc         1 UP0       0.049700
     27 H5          77.3280   100.5470    86.5180 hc         1 UP0       0.049700
     28 H6          76.1160   101.9360    83.8310 hc         1 UP0       0.020700
     29 H7          74.3770   103.9310    85.1880 ho         1 UP0       0.427000
     30 H8          75.3640   104.3310    81.1240 hc         1 UP0       0.048700
     31 H9          75.5160   102.7910    81.9210 hc         1 UP0       0.048700
     32 H10         80.3890   101.9040    80.6390 ha         1 UP0       0.201000
     33 H11         80.6180   104.1320    79.3230 hc         1 UP0       0.017367
     34 H12         80.3430   102.7050    78.3170 hc         1 UP0       0.017367
     35 H13         79.0200   103.8250    78.6290 hc         1 UP0       0.017367
     36 H14         76.0330   102.7020    86.7360 hc         1 UP0       0.024700
     37 H15         74.7620   102.0300    85.7470 hc         1 UP0       0.024700
     38 H16         76.5690   104.7300    84.9220 h1         1 UP0       0.100700
     39 H17         77.5160   104.2410    80.1510 h1         1 UP0       0.039700
     40 H18         75.7460   103.1370    79.2030 ho         1 UP0       0.408000
     41 H19         77.1700   101.1730    82.2470 hc         1 UP0       0.032200
     42 H20         78.7060   100.5630    81.9000 hc         1 UP0       0.032200
     43 C21         78.7640   102.8560    85.8950 c          1 UP0       0.734200
@<TRIPOS>BOND
     1     1     2 1   
     2     1    23 1   
     3     1    24 1   
     4     1    25 1   
     5     2    12 1   
     6     2    26 1   
     7     2    27 1   
     8     3    12 1   
     9     3    13 1   
    10     3    18 1   
    11     3    28 1   
    12     4    13 1   
    13     4    29 1   
    14     5     6 1   
    15     5    13 1   
    16     5    14 2   
    17     6    15 1   
    18     6    30 1   
    19     6    31 1   
    20     7     8 2   
    21     7    15 1   
    22     7    17 1   
    23     8     9 1   
    24     8    32 1   
    25     9    33 1   
    26     9    34 1   
    27     9    35 1   
    28    10    11 1   
    29    10    17 1   
    30    10    18 2   
    31    11    21 1   
    32    11    22 1   
    33    12    36 1   
    34    12    37 1   
    35    13    38 1   
    36    15    16 1   
    37    15    39 1   
    38    16    40 1   
    39    17    41 1   
    40    17    42 1   
    41    18    43 1   
    42    19    43 1   
    43    20    43 1   
@<TRIPOS>SUBSTRUCTURE
     1 UP0         1 TEMP              0 ****  ****    0 ROOT
