@<TRIPOS>MOLECULE
UP1
   57    59     1     0     0
SMALL
No Charge or Current Charge


@<TRIPOS>ATOM
      1 N1           1.6560    -1.4240     2.0510 n          1 UP1      -0.300000
      2 C2           1.4060    -1.4660     3.4370 c          1 UP1       0.629000
      3 N3           0.1380    -1.7890     3.8100 ns         1 UP1      -0.473500
      4 C4          -0.9220    -2.0710     3.0150 c          1 UP1       0.599200
      5 C5          -0.6160    -2.0040     1.5910 cc         1 UP1      -0.422200
      6 C6           0.6410    -1.6850     1.1300 cd         1 UP1       0.041600
      7 O2           2.2560    -1.2300     4.2800 o          1 UP1      -0.552000
      8 O4          -2.0180    -2.3500     3.4660 o          1 UP1      -0.571000
      9 C1           3.0320    -1.0910     1.5950 c5         1 UP1       0.293700
     10 C7           3.7330    -2.4370     1.1960 c5         1 UP1       0.087300
     11 O7           4.3790    -3.1510     2.2720 oh         1 UP1      -0.725000
     12 C3           4.7400    -1.9050     0.1400 c5         1 UP1       0.095300
     13 C8           3.8060    -0.9300    -0.6390 c5         1 UP1       0.166300
     14 O8           3.0100    -0.2800     0.3940 os         1 UP1      -0.404000
     15 O3           5.2860    -2.9620    -0.6610 oh         1 UP1      -0.704000
     16 C9           4.5470     0.0840    -1.5740 c3         1 UP1       0.238600
     17 O5           4.2090     1.4420    -1.2430 os         1 UP1      -0.571400
     18 PA           5.3430     2.5830    -1.3200 p5         1 UP1       1.468800
     19 O1A          4.7000     3.9230    -1.1670 o          1 UP1      -0.840500
     20 O2A          6.0980     2.4520    -2.6000 o          1 UP1      -0.840500
     21 O3A          6.1280     2.1510    -0.0260 os         1 UP1      -0.738800
     22 PB           7.5890     2.7230     0.0530 p5         1 UP1       1.465800
     23 O1B          8.5560     1.9870    -0.8120 o          1 UP1      -0.827000
     24 O2B          7.6600     4.2020    -0.1350 o          1 UP1      -0.827000
     25 O3B          7.8660     2.3840     1.6030 os         1 UP1      -0.547400
     26 C10          8.0620     1.0100     1.9380 c6         1 UP1       0.451300
     27 C23          6.8920     0.4270     2.7930 c6         1 UP1       0.109300
     28 C11          7.1890    -1.0680     3.0880 c6         1 UP1       0.135300
     29 C45          8.5320    -1.1590     3.8730 c6         1 UP1       0.102300
     30 C56          9.6790    -0.4490     3.0690 c6         1 UP1       0.157300
     31 C67         10.1490    -1.2240     1.7830 c3         1 UP1       0.142600
     32 F2           5.6620     0.5260     2.1200 f          1 UP1      -0.227000
     33 O9           6.1320    -1.7040     3.8310 oh         1 UP1      -0.675000
     34 O45          8.8380    -2.5340     4.1790 oh         1 UP1      -0.714000
     35 O10          9.2730     0.9100     2.7230 os         1 UP1      -0.445000
     36 O6          11.1500    -0.5150     1.0330 oh         1 UP1      -0.686000
     37 H6           0.9250    -1.6160     0.0820 h4         1 UP1       0.218000
     38 H1           3.5610    -0.5650     2.3990 h2         1 UP1       0.122700
     39 H3          -0.0330    -1.8210     4.8020 hn         1 UP1       0.329500
     40 H5          -1.4400    -2.2180     0.9190 ha         1 UP1       0.211000
     41 H2           3.0070    -3.1000     0.7040 h1         1 UP1       0.073700
     42 HA           4.9360    -2.5090     2.7990 ho         1 UP1       0.537000
     43 H8           5.5550    -1.3470     0.6160 h1         1 UP1       0.057700
     44 H4           3.1150    -1.5100    -1.2660 h1         1 UP1       0.057700
     45 HB           5.4840    -3.7040    -0.0420 ho         1 UP1       0.501000
     46 H5'1         4.2660    -0.1300    -2.6140 h1         1 UP1       0.024200
     47 H5'2         5.6290    -0.0850    -1.4910 h1         1 UP1       0.024200
     48 H7           8.1680     0.4070     1.0240 h2         1 UP1       0.048700
     49 H9           6.7970     0.9920     3.7310 h1         1 UP1       0.058700
     50 H33          7.3190    -1.5890     2.1280 h1         1 UP1       0.090700
     51 H10          8.4040    -0.6040     4.8150 h1         1 UP1       0.031700
     52 HC           6.6010    -2.3230     4.4390 ho         1 UP1       0.445000
     53 H56         10.5530    -0.3680     3.7300 h1         1 UP1       0.056700
     54 HD           9.5710    -2.5360     4.8400 ho         1 UP1       0.491000
     55 H61          9.2840    -1.4320     1.1420 h1         1 UP1       0.015700
     56 H62         10.5520    -2.1960     2.0990 h1         1 UP1       0.015700
     57 H66         11.3700    -1.0660     0.2460 ho         1 UP1       0.498000
@<TRIPOS>BOND
     1     1     2 1   
     2     1     6 1   
     3     1     9 1   
     4     2     3 1   
     5     2     7 2   
     6     3     4 1   
     7     3    39 1   
     8     4     5 1   
     9     4     8 2   
    10     5     6 2   
    11     5    40 1   
    12     6    37 1   
    13     9    10 1   
    14     9    14 1   
    15     9    38 1   
    16    10    11 1   
    17    10    12 1   
    18    10    41 1   
    19    11    42 1   
    20    12    13 1   
    21    12    15 1   
    22    12    43 1   
    23    13    14 1   
    24    13    16 1   
    25    13    44 1   
    26    15    45 1   
    27    16    17 1   
    28    16    46 1   
    29    16    47 1   
    30    17    18 1   
    31    18    19 1   
    32    18    20 1   
    33    18    21 1   
    34    21    22 1   
    35    22    23 1   
    36    22    24 1   
    37    22    25 1   
    38    25    26 1   
    39    26    27 1   
    40    26    35 1   
    41    26    48 1   
    42    27    28 1   
    43    27    32 1   
    44    27    49 1   
    45    28    29 1   
    46    28    33 1   
    47    28    50 1   
    48    29    30 1   
    49    29    34 1   
    50    29    51 1   
    51    30    31 1   
    52    30    35 1   
    53    30    53 1   
    54    31    36 1   
    55    31    55 1   
    56    31    56 1   
    57    33    52 1   
    58    34    54 1   
    59    36    57 1   
@<TRIPOS>SUBSTRUCTURE
     1 UP1         1 TEMP              0 ****  ****    0 ROOT
