@<TRIPOS>MOLECULE
UP1
   57    59     1     0     0
SMALL
bcc


@<TRIPOS>ATOM
      1 N1           1.7130    -1.4130     2.1420 n          1 UP1      -0.367000
      2 C2           1.4130    -1.1310     3.4600 c          1 UP1       0.838500
      3 N3           0.0720    -1.1170     3.7460 ns         1 UP1      -0.607500
      4 C4          -0.9910    -1.3400     2.8850 c          1 UP1       0.741700
      5 C5          -0.5820    -1.6180     1.5300 cc         1 UP1      -0.372200
      6 C6           0.7240    -1.6380     1.2260 cd         1 UP1       0.091600
      7 O2           2.2540    -0.9150     4.3060 o          1 UP1      -0.627500
      8 O4          -2.1370    -1.2930     3.2910 o          1 UP1      -0.646500
      9 C1           3.1040    -1.4370     1.7100 c5         1 UP1       0.270500
     10 C7           3.5760    -2.8250     1.2580 c5         1 UP1       0.064100
     11 O7           4.0570    -3.6280     2.2910 oh         1 UP1      -0.602800
     12 C3           4.5720    -2.4820     0.1540 c5         1 UP1       0.072100
     13 C8           3.9970    -1.1950    -0.4360 c5         1 UP1       0.143100
     14 O8           3.2530    -0.5810     0.6140 os         1 UP1      -0.357600
     15 O3           4.7150    -3.4530    -0.8420 oh         1 UP1      -0.581800
     16 C9           5.0970    -0.2760    -0.9220 c3         1 UP1       0.215400
     17 O5           4.5680     0.9750    -1.2930 os         1 UP1      -0.548200
     18 PA           5.6200     2.2160    -1.5330 p5         1 UP1       1.468800
     19 O1A          4.7850     3.3770    -1.9640 o          1 UP1      -0.840500
     20 O2A          6.7820     1.7370    -2.3380 o          1 UP1      -0.840500
     21 O3A          6.0600     2.4360     0.0410 os         1 UP1      -0.738800
     22 PB           7.3030     3.2730     0.7020 p5         1 UP1       1.465800
     23 O1B          8.5400     3.1130    -0.1110 o          1 UP1      -0.827000
     24 O2B          6.8130     4.6090     1.1540 o          1 UP1      -0.827000
     25 O3B          7.4420     2.3950     2.1100 os         1 UP1      -0.524200
     26 C10          7.8230     1.0710     2.0770 c6         1 UP1       0.404900
     27 C23          6.8300     0.2360     2.8770 c6         1 UP1       0.090600
     28 C11          7.2520    -1.2220     2.8690 c6         1 UP1       0.112100
     29 C45          8.6530    -1.3000     3.4720 c6         1 UP1       0.079100
     30 C56          9.6180    -0.3410     2.7410 c6         1 UP1       0.134100
     31 C67         10.0600    -0.8500     1.3730 c3         1 UP1       0.119400
     32 F2           5.5720     0.3640     2.3140 f          1 UP1      -0.208300
     33 O9           6.3270    -2.0610     3.5150 oh         1 UP1      -0.612800
     34 O45          9.0820    -2.6320     3.4230 oh         1 UP1      -0.591800
     35 O10          9.0750     0.9670     2.6990 os         1 UP1      -0.398600
     36 O6          10.9590     0.0910     0.8400 oh         1 UP1      -0.563800
     37 H6           1.0540    -1.8370     0.2160 h4         1 UP1       0.168000
     38 H1           3.6920    -1.0900     2.5600 h2         1 UP1       0.122700
     39 H3          -0.1580    -0.9130     4.7120 hn         1 UP1       0.329500
     40 H5          -1.3280    -1.8020     0.7720 ha         1 UP1       0.161000
     41 H2           2.7420    -3.3720     0.8030 h1         1 UP1       0.073700
     42 HA           4.8120    -3.1870     2.7110 ho         1 UP1       0.438000
     43 H8           5.5440    -2.2530     0.6210 h1         1 UP1       0.057700
     44 H4           3.3140    -1.4360    -1.2610 h1         1 UP1       0.057700
     45 HB           5.2060    -4.1950    -0.4770 ho         1 UP1       0.402000
     46 H5'1         5.5950    -0.7670    -1.7650 h1         1 UP1       0.024200
     47 H5'2         5.8400    -0.1690    -0.1280 h1         1 UP1       0.024200
     48 H7           7.8720     0.6950     1.0440 h2         1 UP1       0.048700
     49 H9           6.7720     0.6160     3.9040 h1         1 UP1       0.058700
     50 H33          7.2830    -1.5770     1.8320 h1         1 UP1       0.090700
     51 H10          8.5820    -0.9510     4.5140 h1         1 UP1       0.031700
     52 HC           6.2300    -1.7980     4.4380 ho         1 UP1       0.406000
     53 H56         10.5190    -0.2460     3.3540 h1         1 UP1       0.056700
     54 HD           9.8680    -2.7210     3.9710 ho         1 UP1       0.392000
     55 H61          9.2090    -1.0160     0.7000 h1         1 UP1       0.015700
     56 H62         10.5310    -1.8280     1.5160 h1         1 UP1       0.015700
     57 H66         11.2260    -0.2150    -0.0310 ho         1 UP1       0.399000
@<TRIPOS>BOND
     1     1     2 1   
     2     1     6 1   
     3     1     9 1   
     4     2     3 1   
     5     2     7 2   
     6     3     4 1   
     7     3    39 1   
     8     4     5 1   
     9     4     8 2   
    10     5     6 2   
    11     5    40 1   
    12     6    37 1   
    13     9    10 1   
    14     9    14 1   
    15     9    38 1   
    16    10    11 1   
    17    10    12 1   
    18    10    41 1   
    19    11    42 1   
    20    12    13 1   
    21    12    15 1   
    22    12    43 1   
    23    13    14 1   
    24    13    16 1   
    25    13    44 1   
    26    15    45 1   
    27    16    17 1   
    28    16    46 1   
    29    16    47 1   
    30    17    18 1   
    31    18    19 1   
    32    18    20 1   
    33    18    21 1   
    34    21    22 1   
    35    22    23 1   
    36    22    24 1   
    37    22    25 1   
    38    25    26 1   
    39    26    27 1   
    40    26    35 1   
    41    26    48 1   
    42    27    28 1   
    43    27    32 1   
    44    27    49 1   
    45    28    29 1   
    46    28    33 1   
    47    28    50 1   
    48    29    30 1   
    49    29    34 1   
    50    29    51 1   
    51    30    31 1   
    52    30    35 1   
    53    30    53 1   
    54    31    36 1   
    55    31    55 1   
    56    31    56 1   
    57    33    52 1   
    58    34    54 1   
    59    36    57 1   
@<TRIPOS>SUBSTRUCTURE
     1 UP1         1 TEMP              0 ****  ****    0 ROOT
