@<TRIPOS>MOLECULE
UP2
   96   100     1     0     0
SMALL
bcc


@<TRIPOS>ATOM
      1 O2R          3.9620    14.2890     1.7640 o          1 UP2      -0.907300
      2 C63          4.6220    14.4740     2.8100 c          1 UP2       0.921600
      3 O1R          4.2810    14.1460     3.9650 o          1 UP2      -0.907300
      4 C62          5.9690    15.2010     2.6390 c3         1 UP2      -0.193400
      5 C61          6.9490    15.0900     3.8060 c3         1 UP2       0.036900
      6 C18          8.2260    15.8370     3.5780 cc         1 UP2      -0.167300
      7 C19          9.3560    15.3570     2.9510 cd         1 UP2      -0.180600
      8 N24         10.2820    16.3520     2.9150 na         1 UP2      -0.128100
      9 C20          9.6880    13.9980     2.4180 c3         1 UP2       0.090200
     10 C1          10.9160    13.4460     3.0640 cc         1 UP2      -0.139600
     11 C17          8.4940    17.1970     3.9250 cc         1 UP2      -0.106300
     12 C86          7.5740    18.1370     4.6260 c3         1 UP2      -0.125100
     13 C87          6.6840    19.0460     3.7390 c          1 UP2       0.940600
     14 O1Q          6.8160    18.9780     2.5020 o          1 UP2      -0.889300
     15 O2Q          5.9010    19.7910     4.3650 o          1 UP2      -0.889300
     16 C16          9.7760    17.4760     3.5000 cd         1 UP2      -0.107600
     17 C15         10.5510    18.7470     3.6000 c3         1 UP2       0.065200
     18 C14         11.6500    18.7350     4.6230 cc         1 UP2      -0.081600
     19 N23         11.6580    17.8520     5.6640 na         1 UP2      -0.133100
     20 C13         12.7660    19.5330     4.7490 cd         1 UP2      -0.125300
     21 C51         13.1700    20.6600     3.8500 c3         1 UP2       0.033900
     22 C52         12.8890    22.0540     4.4200 c3         1 UP2      -0.185400
     23 C53         11.3930    22.3720     4.5880 c          1 UP2       0.927600
     24 O2M         11.0180    22.8050     5.6970 o          1 UP2      -0.873800
     25 O1M         10.6740    22.1930     3.5800 o          1 UP2      -0.873800
     26 C12         13.4740    19.0910     5.9110 cd         1 UP2      -0.091300
     27 C81         14.7300    19.6690     6.4790 c3         1 UP2      -0.104100
     28 C82         16.0770    19.3180     5.7940 c          1 UP2       0.917600
     29 O1L         17.0950    19.5780     6.4720 o          1 UP2      -0.868800
     30 O2L         16.0580    18.8490     4.6410 o          1 UP2      -0.868800
     31 C11         12.7550    18.0480     6.4500 cc         1 UP2      -0.126600
     32 C10         13.0050    17.2410     7.6890 c3         1 UP2       0.081200
     33 C6          12.4360    15.8570     7.6800 cc         1 UP2      -0.108600
     34 N22         12.8860    14.8870     6.8330 na         1 UP2      -0.128100
     35 C7          11.4570    15.3120     8.4830 cd         1 UP2      -0.118300
     36 C7A         10.6840    16.0230     9.5430 c3         1 UP2      -0.119100
     37 C7B         11.3000    16.0840    10.9650 c          1 UP2       0.932600
     38 O17         10.6380    16.7430    11.7950 o          1 UP2      -0.891300
     39 O27         12.3740    15.4910    11.1750 o          1 UP2      -0.891300
     40 C8          11.3120    13.9460     8.0890 cd         1 UP2      -0.166300
     41 C41         10.3860    12.9390     8.6990 c3         1 UP2       0.034900
     42 C42         11.0280    12.1390     9.8320 c3         1 UP2      -0.193400
     43 C43         10.1110    11.1520    10.5780 c          1 UP2       0.922600
     44 O28          8.8820    11.2260    10.3680 o          1 UP2      -0.905800
     45 O18         10.6810    10.3590    11.3580 o          1 UP2      -0.905800
     46 C9          12.2150    13.7240     7.0700 cc         1 UP2      -0.178600
     47 C5          12.4380    12.4980     6.2360 c3         1 UP2       0.088200
     48 C4          12.1740    12.7690     4.7900 cc         1 UP2      -0.128600
     49 N21         10.9270    13.1450     4.3920 na         1 UP2      -0.138100
     50 C3          12.9980    12.8250     3.6880 cd         1 UP2      -0.134300
     51 C2          12.1940    13.2700     2.5870 cd         1 UP2      -0.101300
     52 C2A         12.6520    13.5600     1.1970 c3         1 UP2      -0.119100
     53 C2B         13.0960    15.0140     0.9030 c          1 UP2       0.947600
     54 O12         13.7680    15.1790    -0.1290 o          1 UP2      -0.833800
     55 O22         12.7310    15.9210     1.6900 o          1 UP2      -0.833800
     56 C31         14.4530    12.4500     3.6400 c3         1 UP2       0.044900
     57 C32         15.3900    13.2770     4.5320 c3         1 UP2      -0.209400
     58 C33         15.3880    14.7560     4.1430 c          1 UP2       0.931600
     59 O13         14.7070    15.5380     4.8560 o          1 UP2      -0.798800
     60 O23         16.0370    15.0760     3.1320 o          1 UP2      -0.798800
     61 H621         6.4540    14.8400     1.7260 hc         1 UP2       0.034700
     62 H622         5.7650    16.2610     2.4480 hc         1 UP2       0.034700
     63 H611         6.4660    15.4560     4.7160 hc         1 UP2       0.018200
     64 H612         7.1620    14.0330     3.9950 hc         1 UP2       0.018200
     65 H24         11.2240    16.2260     2.5170 hn         1 UP2       0.374700
     66 H201         8.8320    13.3370     2.5790 hc         1 UP2       0.020700
     67 H202         9.8410    14.0270     1.3350 hc         1 UP2       0.020700
     68 H21         10.1370    13.2380     5.0100 hn         1 UP2       0.300700
     69 H861         6.9100    17.5810     5.2960 hc         1 UP2       0.025200
     70 H862         8.1410    18.7990     5.2920 hc         1 UP2       0.025200
     71 H151        10.9860    19.0030     2.6280 hc         1 UP2       0.067700
     72 H152         9.8510    19.5580     3.8140 hc         1 UP2       0.067700
     73 H23         10.9670    17.1320     5.8080 hn         1 UP2       0.298700
     74 H511        14.2390    20.5740     3.6420 hc         1 UP2       0.026200
     75 H512        12.6640    20.5710     2.8850 hc         1 UP2       0.026200
     76 H521        13.4090    22.1770     5.3720 hc         1 UP2      -0.020300
     77 H522        13.3210    22.7970     3.7370 hc         1 UP2      -0.020300
     78 H811        14.6640    20.7640     6.4710 hc         1 UP2      -0.007800
     79 H812        14.8150    19.4090     7.5380 hc         1 UP2      -0.007800
     80 H101        14.0860    17.2020     7.8590 hc         1 UP2       0.041200
     81 H102        12.5980    17.7600     8.5630 hc         1 UP2       0.041200
     82 H22         13.5890    15.0410     6.0860 hn         1 UP2       0.374700
     83 H7A1        10.4790    17.0530     9.2320 hc         1 UP2       0.023200
     84 H7A2         9.6920    15.5660     9.6420 hc         1 UP2       0.023200
     85 H411         9.4990    13.4490     9.0810 hc         1 UP2       0.019700
     86 H412        10.0180    12.2500     7.9330 hc         1 UP2       0.019700
     87 H421        11.8950    11.5930     9.4450 hc         1 UP2       0.033200
     88 H422        11.4460    12.8390    10.5650 hc         1 UP2       0.033200
     89 H51C        13.4530    12.1120     6.3540 hc         1 UP2       0.020200
     90 H52C        11.7800    11.7060     6.6060 hc         1 UP2       0.020200
     91 H311        14.5740    11.3950     3.9080 hc         1 UP2      -0.017800
     92 H312        14.8070    12.5290     2.6090 hc         1 UP2      -0.017800
     93 H2A1        13.4690    12.8930     0.9110 hc         1 UP2      -0.016800
     94 H2A2        11.8480    13.3350     0.4850 hc         1 UP2      -0.016800
     95 H321        15.1110    13.1520     5.5800 hc         1 UP2      -0.013800
     96 H322        16.4010    12.8730     4.4230 hc         1 UP2      -0.013800
@<TRIPOS>BOND
     1     1     2 1   
     2     2     3 1   
     3     2     4 1   
     4     4     5 1   
     5     4    61 1   
     6     4    62 1   
     7     5     6 1   
     8     5    63 1   
     9     5    64 1   
    10     6     7 2   
    11     6    11 1   
    12     7     8 1   
    13     7     9 1   
    14     8    16 1   
    15     8    65 1   
    16     9    10 1   
    17     9    66 1   
    18     9    67 1   
    19    10    49 1   
    20    10    51 2   
    21    11    12 1   
    22    11    16 2   
    23    12    13 1   
    24    12    69 1   
    25    12    70 1   
    26    13    14 1   
    27    13    15 1   
    28    16    17 1   
    29    17    18 1   
    30    17    71 1   
    31    17    72 1   
    32    18    19 1   
    33    18    20 2   
    34    19    31 1   
    35    19    73 1   
    36    20    21 1   
    37    20    26 1   
    38    21    22 1   
    39    21    74 1   
    40    21    75 1   
    41    22    23 1   
    42    22    76 1   
    43    22    77 1   
    44    23    24 1   
    45    23    25 1   
    46    26    27 1   
    47    26    31 2   
    48    27    28 1   
    49    27    78 1   
    50    27    79 1   
    51    28    29 1   
    52    28    30 1   
    53    31    32 1   
    54    32    33 1   
    55    32    80 1   
    56    32    81 1   
    57    33    34 1   
    58    33    35 2   
    59    34    46 1   
    60    34    82 1   
    61    35    36 1   
    62    35    40 1   
    63    36    37 1   
    64    36    83 1   
    65    36    84 1   
    66    37    38 1   
    67    37    39 1   
    68    40    41 1   
    69    40    46 2   
    70    41    42 1   
    71    41    85 1   
    72    41    86 1   
    73    42    43 1   
    74    42    87 1   
    75    42    88 1   
    76    43    44 1   
    77    43    45 1   
    78    46    47 1   
    79    47    48 1   
    80    47    89 1   
    81    47    90 1   
    82    48    49 1   
    83    48    50 2   
    84    49    68 1   
    85    50    51 1   
    86    50    56 1   
    87    51    52 1   
    88    52    53 1   
    89    52    93 1   
    90    52    94 1   
    91    53    54 1   
    92    53    55 1   
    93    56    57 1   
    94    56    91 1   
    95    56    92 1   
    96    57    58 1   
    97    57    95 1   
    98    57    96 1   
    99    58    59 1   
   100    58    60 1   
@<TRIPOS>SUBSTRUCTURE
     1 UP2         1 TEMP              0 ****  ****    0 ROOT
