@<TRIPOS>MOLECULE
UP2
   96   100     1     0     0
SMALL
No Charge or Current Charge


@<TRIPOS>ATOM
      1 O2R          5.0450    12.9020     3.2850 o          1 UP2      -0.802000
      2 C63          4.9310    14.1130     3.3930 c          1 UP2       0.711000
      3 O1R          3.9680    14.6440     3.9230 o          1 UP2      -0.802000
      4 C62          6.0670    15.0030     2.8620 c3         1 UP2      -0.193400
      5 C61          7.1160    15.2420     3.9740 c3         1 UP2       0.036900
      6 C18          8.3490    15.9840     3.4870 cc         1 UP2      -0.167300
      7 C19          9.3630    15.4570     2.7260 cd         1 UP2      -0.231300
      8 N24         10.3020    16.4640     2.5290 na         1 UP2      -0.077000
      9 C20          9.6090    14.0510     2.2460 c3         1 UP2       0.090200
     10 C1          10.8050    13.4700     2.9600 cc         1 UP2      -0.190300
     11 C17          8.6900    17.3360     3.7970 cc         1 UP2      -0.106300
     12 C86          7.8730    18.2740     4.6740 c3         1 UP2      -0.125100
     13 C87          6.7210    18.9880     3.9240 c          1 UP2       0.730000
     14 O1Q          6.9810    19.9880     3.2680 o          1 UP2      -0.784000
     15 O2Q          5.6020    18.4970     3.9590 o          1 UP2      -0.784000
     16 C16          9.9090    17.6110     3.2190 cd         1 UP2      -0.158300
     17 C15         10.7700    18.8530     3.3050 c3         1 UP2       0.065200
     18 C14         11.7260    18.8550     4.4790 cc         1 UP2      -0.132300
     19 N23         11.7240    17.8990     5.4950 na         1 UP2      -0.082000
     20 C13         12.7380    19.7350     4.7840 cd         1 UP2      -0.125300
     21 C51         13.1420    20.9420     3.9570 c3         1 UP2       0.033900
     22 C52         12.6140    22.3080     4.4680 c3         1 UP2      -0.185400
     23 C53         11.0910    22.4340     4.2610 c          1 UP2       0.717000
     24 O2M         10.3490    22.1780     5.1970 o          1 UP2      -0.768500
     25 O1M         10.6900    22.8270     3.1740 o          1 UP2      -0.768500
     26 C12         13.3740    19.2950     5.9840 cd         1 UP2      -0.091300
     27 C81         14.5430    19.9800     6.6810 c3         1 UP2      -0.104100
     28 C82         15.9300    19.4340     6.2460 c          1 UP2       0.707000
     29 O1L         16.4160    18.5030     6.8720 o          1 UP2      -0.763500
     30 O2L         16.4720    19.9270     5.2660 o          1 UP2      -0.763500
     31 C11         12.7340    18.1580     6.4220 cc         1 UP2      -0.177300
     32 C10         13.0130    17.3220     7.6530 c3         1 UP2       0.081200
     33 C6          12.4170    15.9290     7.6720 cc         1 UP2      -0.159300
     34 N22         12.7810    14.9290     6.7750 na         1 UP2      -0.077000
     35 C7          11.5000    15.3640     8.5310 cd         1 UP2      -0.118300
     36 C7A         10.8040    16.0890     9.6790 c3         1 UP2      -0.119100
     37 C7B         11.6230    16.0930    10.9950 c          1 UP2       0.722000
     38 O17         12.4490    16.9770    11.1710 o          1 UP2      -0.786000
     39 O27         11.4600    15.1790    11.7910 o          1 UP2      -0.786000
     40 C8          11.3070    14.0000     8.1440 cd         1 UP2      -0.166300
     41 C41         10.3660    12.9940     8.7890 c3         1 UP2       0.034900
     42 C42         11.0970    11.9810     9.7000 c3         1 UP2      -0.193400
     43 C43         10.0980    10.9440    10.2370 c          1 UP2       0.712000
     44 O28          9.5110    11.1820    11.2810 o          1 UP2      -0.800500
     45 O18          9.9070     9.9290     9.5830 o          1 UP2      -0.800500
     46 C9          12.1110    13.7410     7.0600 cc         1 UP2      -0.229300
     47 C5          12.2540    12.4880     6.2230 c3         1 UP2       0.088200
     48 C4          12.0240    12.7790     4.7630 cc         1 UP2      -0.179300
     49 N21         10.7910    13.2330     4.3230 na         1 UP2      -0.087000
     50 C3          12.8520    12.7490     3.6580 cd         1 UP2      -0.134300
     51 C2          12.0810    13.1860     2.5290 cd         1 UP2      -0.101300
     52 C2A         12.5600    13.3480     1.0930 c3         1 UP2      -0.119100
     53 C2B         13.1010    14.7730     0.8070 c          1 UP2       0.737000
     54 O12         14.3110    14.9400     0.7810 o          1 UP2      -0.728500
     55 O22         12.2970    15.6920     0.6970 o          1 UP2      -0.728500
     56 C31         14.3120    12.3040     3.6270 c3         1 UP2       0.044900
     57 C32         15.3050    13.0660     4.5470 c3         1 UP2      -0.209400
     58 C33         15.4030    14.5530     4.1720 c          1 UP2       0.721000
     59 O13         14.6370    15.3290     4.7250 o          1 UP2      -0.693500
     60 O23         16.2980    14.8940     3.4120 o          1 UP2      -0.693500
     61 H621         6.5950    14.4950     2.0470 hc         1 UP2       0.034700
     62 H622         5.6880    15.9940     2.5890 hc         1 UP2       0.034700
     63 H611         6.6360    15.7650     4.8070 hc         1 UP2       0.018200
     64 H612         7.4270    14.2720     4.3790 hc         1 UP2       0.018200
     65 H24         11.1600    16.3500     1.9780 hn         1 UP2       0.425000
     66 H201         8.7340    13.4170     2.4330 hc         1 UP2       0.020700
     67 H202         9.7510    14.0510     1.1600 hc         1 UP2       0.020700
     68 H21          9.9960    13.4070     4.9270 hn         1 UP2       0.351000
     69 H861         7.4720    17.6860     5.5070 hc         1 UP2       0.025200
     70 H862         8.5790    19.0340     5.0260 hc         1 UP2       0.025200
     71 H151        11.3430    18.9590     2.3760 hc         1 UP2       0.067700
     72 H152        10.1320    19.7430     3.3550 hc         1 UP2       0.067700
     73 H23         11.0780    17.1190     5.5450 hn         1 UP2       0.349000
     74 H511        14.2360    20.9950     3.9160 hc         1 UP2       0.026200
     75 H512        12.8260    20.8110     2.9150 hc         1 UP2       0.026200
     76 H521        12.8750    22.3790     5.5310 hc         1 UP2      -0.020300
     77 H522        13.1380    23.0470     3.8470 hc         1 UP2      -0.020300
     78 H811        14.4830    21.0430     6.4280 hc         1 UP2      -0.007800
     79 H812        14.4030    19.8100     7.7560 hc         1 UP2      -0.007800
     80 H101        14.0980    17.2230     7.7720 hc         1 UP2       0.041200
     81 H102        12.6830    17.8850     8.5320 hc         1 UP2       0.041200
     82 H22         13.4400    15.0560     5.9990 hn         1 UP2       0.425000
     83 H7A1        10.6630    17.1230     9.3430 hc         1 UP2       0.023200
     84 H7A2         9.8440    15.5940     9.8510 hc         1 UP2       0.023200
     85 H411         9.5850    13.4930     9.3710 hc         1 UP2       0.019700
     86 H412         9.8310    12.4440     8.0060 hc         1 UP2       0.019700
     87 H421        11.8510    11.4940     9.0710 hc         1 UP2       0.033200
     88 H422        11.5210    12.5700    10.5210 hc         1 UP2       0.033200
     89 H51C        13.2240    12.0140     6.3970 hc         1 UP2       0.020200
     90 H52C        11.5210    11.7390     6.5420 hc         1 UP2       0.020200
     91 H311        14.3520    11.2430     3.9020 hc         1 UP2      -0.017800
     92 H312        14.7090    12.3510     2.6080 hc         1 UP2      -0.017800
     93 H2A1        13.3250    12.5910     0.8850 hc         1 UP2      -0.016800
     94 H2A2        11.6730    13.1790     0.4720 hc         1 UP2      -0.016800
     95 H321        14.9380    12.9630     5.5700 hc         1 UP2      -0.013800
     96 H322        16.2730    12.5710     4.3950 hc         1 UP2      -0.013800
@<TRIPOS>BOND
     1     1     2 1   
     2     2     3 1   
     3     2     4 1   
     4     4     5 1   
     5     4    61 1   
     6     4    62 1   
     7     5     6 1   
     8     5    63 1   
     9     5    64 1   
    10     6     7 2   
    11     6    11 1   
    12     7     8 1   
    13     7     9 1   
    14     8    16 1   
    15     8    65 1   
    16     9    10 1   
    17     9    66 1   
    18     9    67 1   
    19    10    49 1   
    20    10    51 2   
    21    11    12 1   
    22    11    16 2   
    23    12    13 1   
    24    12    69 1   
    25    12    70 1   
    26    13    14 1   
    27    13    15 1   
    28    16    17 1   
    29    17    18 1   
    30    17    71 1   
    31    17    72 1   
    32    18    19 1   
    33    18    20 2   
    34    19    31 1   
    35    19    73 1   
    36    20    21 1   
    37    20    26 1   
    38    21    22 1   
    39    21    74 1   
    40    21    75 1   
    41    22    23 1   
    42    22    76 1   
    43    22    77 1   
    44    23    24 1   
    45    23    25 1   
    46    26    27 1   
    47    26    31 2   
    48    27    28 1   
    49    27    78 1   
    50    27    79 1   
    51    28    29 1   
    52    28    30 1   
    53    31    32 1   
    54    32    33 1   
    55    32    80 1   
    56    32    81 1   
    57    33    34 1   
    58    33    35 2   
    59    34    46 1   
    60    34    82 1   
    61    35    36 1   
    62    35    40 1   
    63    36    37 1   
    64    36    83 1   
    65    36    84 1   
    66    37    38 1   
    67    37    39 1   
    68    40    41 1   
    69    40    46 2   
    70    41    42 1   
    71    41    85 1   
    72    41    86 1   
    73    42    43 1   
    74    42    87 1   
    75    42    88 1   
    76    43    44 1   
    77    43    45 1   
    78    46    47 1   
    79    47    48 1   
    80    47    89 1   
    81    47    90 1   
    82    48    49 1   
    83    48    50 2   
    84    49    68 1   
    85    50    51 1   
    86    50    56 1   
    87    51    52 1   
    88    52    53 1   
    89    52    93 1   
    90    52    94 1   
    91    53    54 1   
    92    53    55 1   
    93    56    57 1   
    94    56    91 1   
    95    56    92 1   
    96    57    58 1   
    97    57    95 1   
    98    57    96 1   
    99    58    59 1   
   100    58    60 1   
@<TRIPOS>SUBSTRUCTURE
     1 UP2         1 TEMP              0 ****  ****    0 ROOT
