@<TRIPOS>MOLECULE
UP3
   90    94     1     0     0
SMALL
No Charge or Current Charge


@<TRIPOS>ATOM
      1 O2R          8.1250     1.9200    18.9310 o          1 UP3      -0.763000
      2 C63          7.6740     0.7830    18.9330 c          1 UP3       0.729000
      3 O1R          7.0330     0.3140    19.8630 o          1 UP3      -0.763000
      4 C62          8.0110    -0.1300    17.7400 c3         1 UP3      -0.188400
      5 C61          6.9850     0.0230    16.5840 c3         1 UP3       0.025800
      6 C18          5.6050    -0.5630    16.8370 cc         1 UP3      -0.160200
      7 C19          5.3400    -1.9670    16.9440 cc         1 UP3       0.171600
      8 N24          4.0000    -2.1940    17.1470 nc         1 UP3      -0.668300
      9 C20          6.2350    -2.9990    16.8320 cf         1 UP3      -0.203200
     10 C1           6.0600    -4.4470    16.9720 cd         1 UP3      -0.026800
     11 C17          4.3890     0.0720    16.9310 cd         1 UP3      -0.109800
     12 C86          4.0710     1.5560    16.7900 c3         1 UP3      -0.156200
     13 C87          3.6630     2.2260    18.1220 c          1 UP3       0.739000
     14 O1Q          2.4980     2.1430    18.4800 o          1 UP3      -0.747500
     15 O2Q          4.5330     2.7490    18.8020 o          1 UP3      -0.747500
     16 C16          3.4330    -0.9850    17.1250 cd         1 UP3       0.435900
     17 C15          1.9770    -0.8270    17.2270 cf         1 UP3      -0.211600
     18 C14          0.9810    -1.7060    17.5400 cc         1 UP3       0.075000
     19 N23          1.1710    -3.0290    17.8200 na         1 UP3      -0.536000
     20 C13         -0.4360    -1.4860    17.6480 cc         1 UP3      -0.139200
     21 C51         -1.0870    -0.1440    17.3810 c3         1 UP3       0.006800
     22 C52         -1.3050     0.1260    15.8740 c3         1 UP3      -0.189400
     23 C53         -2.0090     1.4800    15.6770 c          1 UP3       0.720000
     24 O2M         -1.3200     2.4810    15.5640 o          1 UP3      -0.786000
     25 O1M         -3.2300     1.5050    15.6750 o          1 UP3      -0.786000
     26 C12         -1.0620    -2.6710    18.0030 cd         1 UP3      -0.035200
     27 C81         -2.5530    -2.8910    18.1920 c3         1 UP3      -0.157200
     28 C82         -3.0020    -2.5840    19.6360 c          1 UP3       0.739000
     29 O1L         -2.9270    -3.4770    20.4660 o          1 UP3      -0.750000
     30 O2L         -3.3220    -1.4380    19.9170 o          1 UP3      -0.750000
     31 C11         -0.0160    -3.6550    18.1100 cd         1 UP3       0.038000
     32 C10         -0.1490    -4.9990    18.3860 ce         1 UP3      -0.147600
     33 C6           0.8040    -6.1120    18.3200 cc         1 UP3       0.378900
     34 N22          2.0840    -5.8810    18.0450 nd         1 UP3      -0.668300
     35 C7           0.4780    -7.5040    18.4720 cc         1 UP3      -0.158800
     36 C7A         -0.9120    -8.0570    18.7580 c3         1 UP3      -0.150200
     37 C7B         -1.2700    -8.0430    20.2620 c          1 UP3       0.709000
     38 O17         -1.7400    -7.0190    20.7310 o          1 UP3      -0.734500
     39 O27         -0.9730    -9.0150    20.9410 o          1 UP3      -0.734500
     40 C8           1.6540    -8.1870    18.2900 cd         1 UP3      -0.161200
     41 C41          1.8950    -9.6850    18.3370 c3         1 UP3       0.023800
     42 C42          2.4840   -10.1510    19.6880 c3         1 UP3      -0.198400
     43 C43          2.6920   -11.6730    19.6760 c          1 UP3       0.724000
     44 O28          3.7630   -12.1080    19.2830 o          1 UP3      -0.796000
     45 O18          1.7700   -12.3910    20.0300 o          1 UP3      -0.796000
     46 C9           2.6160    -7.1570    18.0230 cd         1 UP3       0.121600
     47 C5           3.9480    -7.3860    17.7490 ce         1 UP3      -0.183200
     48 C4           5.0370    -6.4770    17.4020 cc         1 UP3      -0.060800
     49 N21          4.9010    -5.1120    17.2940 na         1 UP3      -0.131000
     50 C3           6.3710    -6.6800    17.1110 cd         1 UP3      -0.122300
     51 C2           6.9820    -5.4640    16.8430 cc         1 UP3      -0.064300
     52 C2A          8.4480    -5.2440    16.4840 c3         1 UP3      -0.148100
     53 C2B          8.6730    -4.8940    14.9940 c          1 UP3       0.728000
     54 O12          8.6390    -3.7190    14.6580 o          1 UP3      -0.758500
     55 O22          8.8090    -5.8070    14.1940 o          1 UP3      -0.758500
     56 C31          7.0320    -8.0480    17.1210 c3         1 UP3       0.016900
     57 C32          7.0010    -8.7390    15.7400 c3         1 UP3      -0.198400
     58 C33          7.6950   -10.1060    15.8170 c          1 UP3       0.723000
     59 O13          7.0210   -11.0840    16.0980 o          1 UP3      -0.790500
     60 O23          8.9010   -10.1590    15.6280 o          1 UP3      -0.790500
     61 H62          8.9670     0.1780    17.2980 hc         1 UP3       0.002700
     62 H62A         7.9990    -1.1800    18.0500 hc         1 UP3       0.002700
     63 H61          6.9180     1.0840    16.3220 hc         1 UP3       0.011200
     64 H61A         7.4030    -0.4620    15.6940 hc         1 UP3       0.011200
     65 H20          7.2480    -2.6840    16.6050 ha         1 UP3       0.191000
     66 H86          4.9600     2.0560    16.3920 hc         1 UP3       0.015200
     67 H86A         3.2290     1.6070    16.0900 hc         1 UP3       0.015200
     68 H15          1.6300     0.1820    17.0380 ha         1 UP3       0.203000
     69 HN23         2.0740    -3.5000    17.8010 hn         1 UP3       0.557000
     70 H51         -2.0530    -0.0850    17.8940 hc         1 UP3       0.048700
     71 H51A        -0.4800     0.6620    17.8130 hc         1 UP3       0.048700
     72 H52         -0.3070     0.1390    15.4200 hc         1 UP3       0.017200
     73 H52A        -1.9410    -0.6940    15.5150 hc         1 UP3       0.017200
     74 H81         -3.0600    -2.2130    17.4960 hc         1 UP3       0.014700
     75 H81A        -2.7570    -3.9400    17.9540 hc         1 UP3       0.014700
     76 H10         -1.1570    -5.3060    18.6390 ha         1 UP3       0.220000
     77 H7A         -1.6150    -7.4260    18.2020 hc         1 UP3       0.004700
     78 H7AA        -0.9280    -9.0890    18.3900 hc         1 UP3       0.004700
     79 H41          0.9640   -10.2320    18.1500 hc         1 UP3       0.021700
     80 H41A         2.5710    -9.9810    17.5270 hc         1 UP3       0.021700
     81 H42          3.4440    -9.6350    19.7980 hc         1 UP3       0.046700
     82 H42A         1.7430    -9.8750    20.4470 hc         1 UP3       0.046700
     83 H5           4.2400    -8.4320    17.7630 ha         1 UP3       0.191000
     84 HN21         4.0220    -4.6340    17.4490 hn         1 UP3       0.399000
     85 H2A          8.7900    -4.4120    17.1100 hc         1 UP3       0.020700
     86 H2AA         8.9870    -6.1690    16.7090 hc         1 UP3       0.020700
     87 H31          8.0670    -7.9810    17.4730 hc         1 UP3       0.030200
     88 H31A         6.5320    -8.6970    17.8500 hc         1 UP3       0.030200
     89 H32          5.9420    -8.8590    15.4850 hc         1 UP3       0.044200
     90 H32A         7.5470    -8.0760    15.0620 hc         1 UP3       0.044200
@<TRIPOS>BOND
     1     1     2 1   
     2     2     3 1   
     3     2     4 1   
     4     4     5 1   
     5     4    61 1   
     6     4    62 1   
     7     5     6 1   
     8     5    63 1   
     9     5    64 1   
    10     6     7 1   
    11     6    11 2   
    12     7     8 1   
    13     7     9 2   
    14     8    16 2   
    15     9    10 1   
    16     9    65 1   
    17    10    49 1   
    18    10    51 2   
    19    11    12 1   
    20    11    16 1   
    21    12    13 1   
    22    12    66 1   
    23    12    67 1   
    24    13    14 1   
    25    13    15 1   
    26    16    17 1   
    27    17    18 2   
    28    17    68 1   
    29    18    19 1   
    30    18    20 1   
    31    19    31 1   
    32    19    69 1   
    33    20    21 1   
    34    20    26 2   
    35    21    22 1   
    36    21    70 1   
    37    21    71 1   
    38    22    23 1   
    39    22    72 1   
    40    22    73 1   
    41    23    24 1   
    42    23    25 1   
    43    26    27 1   
    44    26    31 1   
    45    27    28 1   
    46    27    74 1   
    47    27    75 1   
    48    28    29 1   
    49    28    30 1   
    50    31    32 2   
    51    32    33 1   
    52    32    76 1   
    53    33    34 2   
    54    33    35 1   
    55    34    46 1   
    56    35    36 1   
    57    35    40 2   
    58    36    37 1   
    59    36    77 1   
    60    36    78 1   
    61    37    38 1   
    62    37    39 1   
    63    40    41 1   
    64    40    46 1   
    65    41    42 1   
    66    41    79 1   
    67    41    80 1   
    68    42    43 1   
    69    42    81 1   
    70    42    82 1   
    71    43    44 1   
    72    43    45 1   
    73    46    47 2   
    74    47    48 1   
    75    47    83 1   
    76    48    49 1   
    77    48    50 2   
    78    49    84 1   
    79    50    51 1   
    80    50    56 1   
    81    51    52 1   
    82    52    53 1   
    83    52    85 1   
    84    52    86 1   
    85    53    54 1   
    86    53    55 1   
    87    56    57 1   
    88    56    87 1   
    89    56    88 1   
    90    57    58 1   
    91    57    89 1   
    92    57    90 1   
    93    58    59 1   
    94    58    60 1   
@<TRIPOS>SUBSTRUCTURE
     1 UP3         1 TEMP              0 ****  ****    0 ROOT
