@<TRIPOS>MOLECULE
UP3
   90    94     1     0     0
SMALL
abcg2


@<TRIPOS>ATOM
      1 O2R          7.4420     2.1690    18.0980 o          1 UP3      -0.763000
      2 C63          7.6130     1.0200    18.5580 c          1 UP3       0.729000
      3 O1R          7.6140     0.6940    19.7610 o          1 UP3      -0.763000
      4 C62          7.8940    -0.0920    17.5280 c3         1 UP3      -0.188400
      5 C61          6.8880    -0.1540    16.3720 c3         1 UP3       0.025800
      6 C18          5.5430    -0.6920    16.7450 cc         1 UP3      -0.160200
      7 C19          5.2550    -2.1000    17.0060 cc         1 UP3       0.171600
      8 N24          3.9470    -2.2940    17.2700 nc         1 UP3      -0.668300
      9 C20          6.2180    -3.1070    16.9500 cf         1 UP3      -0.203200
     10 C1           6.0390    -4.4670    17.1410 cd         1 UP3      -0.026800
     11 C17          4.3560    -0.0430    16.8700 cd         1 UP3      -0.109800
     12 C86          4.0410     1.3960    16.6680 c3         1 UP3      -0.156200
     13 C87          3.7170     2.2150    17.9510 c          1 UP3       0.739000
     14 O1Q          3.3340     3.3830    17.7450 o          1 UP3      -0.747500
     15 O2Q          3.8790     1.6570    19.0510 o          1 UP3      -0.747500
     16 C16          3.3750    -1.0730    17.1920 cd         1 UP3       0.435900
     17 C15          2.0180    -0.8170    17.3670 cf         1 UP3      -0.211600
     18 C14          1.0160    -1.7460    17.6050 cc         1 UP3       0.075000
     19 N23          1.2000    -3.0880    17.7220 na         1 UP3      -0.536000
     20 C13         -0.3870    -1.4980    17.7570 cc         1 UP3      -0.139200
     21 C51         -1.0400    -0.1580    17.6620 c3         1 UP3       0.006800
     22 C52         -1.4020     0.2080    16.2240 c3         1 UP3      -0.189400
     23 C53         -2.0910     1.5760    16.0320 c          1 UP3       0.720000
     24 O2M         -2.3490     1.8850    14.8500 o          1 UP3      -0.786000
     25 O1M         -2.3390     2.2510    17.0510 o          1 UP3      -0.786000
     26 C12         -1.0040    -2.7080    17.9480 cd         1 UP3      -0.035200
     27 C81         -2.4540    -2.9660    18.1340 c3         1 UP3      -0.157200
     28 C82         -2.9200    -3.1520    19.6080 c          1 UP3       0.739000
     29 O1L         -4.1430    -3.3400    19.7470 o          1 UP3      -0.750000
     30 O2L         -2.0550    -3.0990    20.4970 o          1 UP3      -0.750000
     31 C11          0.0120    -3.7180    17.9300 cd         1 UP3       0.038000
     32 C10         -0.1680    -5.0800    18.1030 ce         1 UP3      -0.147600
     33 C6           0.8040    -6.0760    18.0850 cc         1 UP3       0.378900
     34 N22          2.1250    -5.8780    17.8910 nd         1 UP3      -0.668300
     35 C7           0.5020    -7.4910    18.2700 cc         1 UP3      -0.158800
     36 C7A         -0.8530    -8.0570    18.5300 c3         1 UP3      -0.150200
     37 C7B         -1.2910    -7.8310    20.0060 c          1 UP3       0.709000
     38 O17         -2.0130    -6.8410    20.2330 o          1 UP3      -0.734500
     39 O27         -0.8600    -8.6520    20.8400 o          1 UP3      -0.734500
     40 C8           1.6940    -8.1400    18.1770 cd         1 UP3      -0.161200
     41 C41          1.9710    -9.6000    18.3160 c3         1 UP3       0.023800
     42 C42          2.4690    -9.9710    19.7120 c3         1 UP3      -0.198400
     43 C43          2.7670   -11.4660    19.9430 c          1 UP3       0.724000
     44 O28          3.3960   -11.7360    20.9870 o          1 UP3      -0.796000
     45 O18          2.3470   -12.2810    19.0960 o          1 UP3      -0.796000
     46 C9           2.6890    -7.1030    17.9390 cd         1 UP3       0.121600
     47 C5           4.0480    -7.3620    17.7610 ce         1 UP3      -0.183200
     48 C4           5.0460    -6.4360    17.5090 cc         1 UP3      -0.060800
     49 N21          4.8630    -5.0900    17.4180 na         1 UP3      -0.131000
     50 C3           6.4400    -6.6910    17.2860 cd         1 UP3      -0.122300
     51 C2           7.0480    -5.4830    17.0550 cc         1 UP3      -0.064300
     52 C2A          8.4750    -5.2030    16.7530 c3         1 UP3      -0.148100
     53 C2B          8.7660    -4.8330    15.2710 c          1 UP3       0.728000
     54 O12          9.8190    -4.1970    15.0750 o          1 UP3      -0.758500
     55 O22          7.9500    -5.2230    14.4160 o          1 UP3      -0.758500
     56 C31          7.0590    -8.0490    17.2320 c3         1 UP3       0.016900
     57 C32          6.8980    -8.6970    15.8560 c3         1 UP3      -0.198400
     58 C33          7.5670   -10.0740    15.6710 c          1 UP3       0.723000
     59 O13          7.2690   -10.6780    14.6190 o          1 UP3      -0.790500
     60 O23          8.3550   -10.4660    16.5550 o          1 UP3      -0.790500
     61 H62          8.8850     0.0950    17.0990 hc         1 UP3       0.002700
     62 H62A         7.9530    -1.0620    18.0260 hc         1 UP3       0.002700
     63 H61          6.7830     0.8440    15.9440 hc         1 UP3       0.011200
     64 H61A         7.3060    -0.7770    15.5750 hc         1 UP3       0.011200
     65 H20          7.2310    -2.8030    16.7170 ha         1 UP3       0.191000
     66 H86          4.8830     1.8890    16.1740 hc         1 UP3       0.015200
     67 H86A         3.1980     1.5050    15.9770 hc         1 UP3       0.015200
     68 H15          1.6940     0.2120    17.2870 ha         1 UP3       0.203000
     69 HN23         2.0980    -3.5460    17.6570 hn         1 UP3       0.557000
     70 H51         -1.9390    -0.1520    18.2800 hc         1 UP3       0.048700
     71 H51A        -0.3860     0.6090    18.0830 hc         1 UP3       0.048700
     72 H52         -0.5020     0.1810    15.6010 hc         1 UP3       0.017200
     73 H52A        -2.0560    -0.5670    15.8080 hc         1 UP3       0.017200
     74 H81         -3.0340    -2.1490    17.6950 hc         1 UP3       0.014700
     75 H81A        -2.7540    -3.8580    17.5750 hc         1 UP3       0.014700
     76 H10         -1.1840    -5.4000    18.2840 ha         1 UP3       0.220000
     77 H7A         -1.5810    -7.6050    17.8520 hc         1 UP3       0.004700
     78 H7AA        -0.8380    -9.1290    18.3160 hc         1 UP3       0.004700
     79 H41          1.0610   -10.1610    18.0960 hc         1 UP3       0.021700
     80 H41A         2.7040    -9.9140    17.5680 hc         1 UP3       0.021700
     81 H42          3.3670    -9.3940    19.9540 hc         1 UP3       0.046700
     82 H42A         1.7180    -9.6540    20.4430 hc         1 UP3       0.046700
     83 H5           4.3670    -8.3960    17.8110 ha         1 UP3       0.191000
     84 HN21         3.9710    -4.6300    17.5290 hn         1 UP3       0.399000
     85 H2A          8.8540    -4.4070    17.4010 hc         1 UP3       0.020700
     86 H2AA         9.0760    -6.0860    16.9910 hc         1 UP3       0.020700
     87 H31          8.1190    -7.9740    17.4770 hc         1 UP3       0.030200
     88 H31A         6.6200    -8.6930    17.9990 hc         1 UP3       0.030200
     89 H32          5.8340    -8.7870    15.6140 hc         1 UP3       0.044200
     90 H32A         7.3040    -8.0170    15.0990 hc         1 UP3       0.044200
@<TRIPOS>BOND
     1     1     2 1   
     2     2     3 1   
     3     2     4 1   
     4     4     5 1   
     5     4    61 1   
     6     4    62 1   
     7     5     6 1   
     8     5    63 1   
     9     5    64 1   
    10     6     7 1   
    11     6    11 2   
    12     7     8 1   
    13     7     9 2   
    14     8    16 2   
    15     9    10 1   
    16     9    65 1   
    17    10    49 1   
    18    10    51 2   
    19    11    12 1   
    20    11    16 1   
    21    12    13 1   
    22    12    66 1   
    23    12    67 1   
    24    13    14 1   
    25    13    15 1   
    26    16    17 1   
    27    17    18 2   
    28    17    68 1   
    29    18    19 1   
    30    18    20 1   
    31    19    31 1   
    32    19    69 1   
    33    20    21 1   
    34    20    26 2   
    35    21    22 1   
    36    21    70 1   
    37    21    71 1   
    38    22    23 1   
    39    22    72 1   
    40    22    73 1   
    41    23    24 1   
    42    23    25 1   
    43    26    27 1   
    44    26    31 1   
    45    27    28 1   
    46    27    74 1   
    47    27    75 1   
    48    28    29 1   
    49    28    30 1   
    50    31    32 2   
    51    32    33 1   
    52    32    76 1   
    53    33    34 2   
    54    33    35 1   
    55    34    46 1   
    56    35    36 1   
    57    35    40 2   
    58    36    37 1   
    59    36    77 1   
    60    36    78 1   
    61    37    38 1   
    62    37    39 1   
    63    40    41 1   
    64    40    46 1   
    65    41    42 1   
    66    41    79 1   
    67    41    80 1   
    68    42    43 1   
    69    42    81 1   
    70    42    82 1   
    71    43    44 1   
    72    43    45 1   
    73    46    47 2   
    74    47    48 1   
    75    47    83 1   
    76    48    49 1   
    77    48    50 2   
    78    49    84 1   
    79    50    51 1   
    80    50    56 1   
    81    51    52 1   
    82    52    53 1   
    83    52    85 1   
    84    52    86 1   
    85    53    54 1   
    86    53    55 1   
    87    56    57 1   
    88    56    87 1   
    89    56    88 1   
    90    57    58 1   
    91    57    89 1   
    92    57    90 1   
    93    58    59 1   
    94    58    60 1   
@<TRIPOS>SUBSTRUCTURE
     1 UP3         1 TEMP              0 ****  ****    0 ROOT
