@<TRIPOS>MOLECULE
UP4
   39    39     1     0     0
SMALL
No Charge or Current Charge


@<TRIPOS>ATOM
      1 C2         -32.9570    39.6350    13.5200 c3         1 UP4      -0.047300
      2 C3         -33.9580    39.2550    12.3850 c          1 UP4       0.718000
      3 C5         -30.5800    40.5980    13.9950 c3         1 UP4      -0.068400
      4 C7         -28.4260    39.9510    12.7550 c3         1 UP4      -0.080100
      5 C9         -28.3570    41.5840    14.6740 c3         1 UP4      -0.080100
      6 C10        -32.5000    36.1030    16.0520 ca         1 UP4      -0.068500
      7 C11        -32.3440    34.9440    16.8330 ca         1 UP4       0.112000
      8 C12        -32.2960    35.0300    18.2310 ca         1 UP4      -0.104000
      9 C13        -32.4040    36.2820    18.8520 ca         1 UP4       0.112000
     10 Cl1        -32.2060    33.3750    16.0500 cl         1 UP4      -0.215000
     11 Cl         -32.3430    36.3960    20.6060 cl         1 UP4      -0.215000
     12 C14        -32.5600    37.4450    18.0800 ca         1 UP4      -0.068500
     13 C          -32.6110    37.3760    16.6680 ca         1 UP4      -0.104600
     14 C1         -32.7780    38.6530    15.8670 c          1 UP4       0.605700
     15 O2         -32.8560    39.7490    16.4080 o          1 UP4      -0.609100
     16 N          -32.8410    38.5200    14.4930 ns         1 UP4      -0.443900
     17 O1         -34.8790    40.0240    12.1480 o          1 UP4      -0.719000
     18 O          -33.8380    38.1640    11.8440 o          1 UP4      -0.719000
     19 C4         -31.5800    40.0500    12.9390 c3         1 UP4      -0.075400
     20 C6         -29.1970    41.0980    13.4630 c3         1 UP4      -0.047000
     21 C8         -29.3730    42.2860    12.4780 c3         1 UP4      -0.080100
     22 H1         -33.3870    40.5040    14.0350 h1         1 UP4       0.063700
     23 H2         -30.3970    39.8130    14.7380 hc         1 UP4       0.031200
     24 H3         -31.0680    41.4190    14.5340 hc         1 UP4       0.031200
     25 H4         -28.3290    39.0790    13.4140 hc         1 UP4       0.027478
     26 H5         -28.9360    39.6310    11.8390 hc         1 UP4       0.027478
     27 H6         -27.4170    40.2750    12.4740 hc         1 UP4       0.027478
     28 H7         -28.1960    40.7710    15.3930 hc         1 UP4       0.027478
     29 H8         -27.3730    41.9460    14.3520 hc         1 UP4       0.027478
     30 H9         -28.8620    42.4040    15.1990 hc         1 UP4       0.027478
     31 H10        -32.5290    35.9890    14.9720 ha         1 UP4       0.147500
     32 H11        -32.1750    34.1320    18.8300 ha         1 UP4       0.132000
     33 H12        -32.6410    38.4040    18.5870 ha         1 UP4       0.147500
     34 H13        -32.8040    37.5800    14.1200 hn         1 UP4       0.298500
     35 H15        -31.7570    40.8160    12.1750 hc         1 UP4       0.050200
     36 H16        -31.1420    39.1860    12.4250 hc         1 UP4       0.050200
     37 H17        -29.9650    43.0890    12.9340 hc         1 UP4       0.027478
     38 H18        -28.4000    42.7040    12.1930 hc         1 UP4       0.027478
     39 H19        -29.8760    41.9730    11.5550 hc         1 UP4       0.027478
@<TRIPOS>BOND
     1     1     2 1   
     2     1    16 1   
     3     1    19 1   
     4     1    22 1   
     5     2    17 1   
     6     2    18 1   
     7     3    19 1   
     8     3    20 1   
     9     3    23 1   
    10     3    24 1   
    11     4    20 1   
    12     4    25 1   
    13     4    26 1   
    14     4    27 1   
    15     5    20 1   
    16     5    28 1   
    17     5    29 1   
    18     5    30 1   
    19     6     7 ar  
    20     6    13 ar  
    21     6    31 1   
    22     7     8 ar  
    23     7    10 1   
    24     8     9 ar  
    25     8    32 1   
    26     9    11 1   
    27     9    12 ar  
    28    12    13 ar  
    29    12    33 1   
    30    13    14 1   
    31    14    15 2   
    32    14    16 1   
    33    16    34 1   
    34    19    35 1   
    35    19    36 1   
    36    20    21 1   
    37    21    37 1   
    38    21    38 1   
    39    21    39 1   
@<TRIPOS>SUBSTRUCTURE
     1 UP4         1 TEMP              0 ****  ****    0 ROOT
