@<TRIPOS>MOLECULE
UP4
   39    39     1     0     0
SMALL
bcc


@<TRIPOS>ATOM
      1 C2         -32.8150    39.9110    14.0270 c3         1 UP4      -0.047300
      2 C3         -34.0850    39.6910    13.1560 c          1 UP4       0.928600
      3 C5         -30.3380    40.5280    13.9340 c3         1 UP4      -0.068400
      4 C7         -28.6940    39.7760    12.1690 c3         1 UP4      -0.080100
      5 C9         -27.9530    41.2020    14.0690 c3         1 UP4      -0.080100
      6 C10        -31.5680    36.8080    16.7680 ca         1 UP4      -0.086500
      7 C11        -31.2910    35.6760    17.5180 ca         1 UP4       0.020400
      8 C12        -32.2570    35.0680    18.3030 ca         1 UP4      -0.122000
      9 C13        -33.5230    35.6330    18.3300 ca         1 UP4       0.020400
     10 CL1        -29.6960    35.0120    17.4890 cl         1 UP4      -0.123400
     11 CL         -34.7440    34.8970    19.3080 cl         1 UP4      -0.123400
     12 C14        -33.8290    36.7690    17.6020 ca         1 UP4      -0.086500
     13 C          -32.8480    37.3500    16.8060 ca         1 UP4      -0.104600
     14 C1         -33.2060    38.5970    16.0490 c          1 UP4       0.672700
     15 O2         -34.0450    39.3680    16.4970 o          1 UP4      -0.609100
     16 N          -32.5390    38.7980    14.9080 ns         1 UP4      -0.510900
     17 O1         -34.4540    40.6950    12.5160 o          1 UP4      -0.824300
     18 O          -34.5950    38.5580    13.1590 o          1 UP4      -0.824300
     19 C4         -31.5960    40.1820    13.1450 c3         1 UP4      -0.075400
     20 C6         -29.1040    40.9180    13.1030 c3         1 UP4      -0.047000
     21 C8         -29.3750    42.1780    12.2780 c3         1 UP4      -0.080100
     22 H1         -32.9820    40.7920    14.6520 h1         1 UP4       0.063700
     23 H2         -30.0650    39.6810    14.5730 hc         1 UP4       0.031200
     24 H3         -30.5710    41.3550    14.6160 hc         1 UP4       0.031200
     25 H4         -28.5350    38.8490    12.7250 hc         1 UP4       0.027478
     26 H5         -29.4490    39.5820    11.4050 hc         1 UP4       0.027478
     27 H6         -27.7630    40.0180    11.6520 hc         1 UP4       0.027478
     28 H7         -27.7090    40.3200    14.6660 hc         1 UP4       0.027478
     29 H8         -27.0510    41.4980    13.5290 hc         1 UP4       0.027478
     30 H9         -28.2050    42.0110    14.7600 hc         1 UP4       0.027478
     31 H10        -30.7810    37.2700    16.1870 ha         1 UP4       0.165500
     32 H11        -32.0290    34.1840    18.8820 ha         1 UP4       0.150000
     33 H12        -34.8200    37.1990    17.6470 ha         1 UP4       0.165500
     34 H13        -32.0280    38.0250    14.5110 hn         1 UP4       0.298500
     35 H15        -31.8580    41.0030    12.4770 hc         1 UP4       0.050200
     36 H16        -31.4170    39.3110    12.5040 hc         1 UP4       0.050200
     37 H17        -29.6930    43.0070    12.9140 hc         1 UP4       0.027478
     38 H18        -28.4740    42.4940    11.7480 hc         1 UP4       0.027478
     39 H19        -30.1510    42.0180    11.5280 hc         1 UP4       0.027478
@<TRIPOS>BOND
     1     1     2 1   
     2     1    16 1   
     3     1    19 1   
     4     1    22 1   
     5     2    17 1   
     6     2    18 1   
     7     3    19 1   
     8     3    20 1   
     9     3    23 1   
    10     3    24 1   
    11     4    20 1   
    12     4    25 1   
    13     4    26 1   
    14     4    27 1   
    15     5    20 1   
    16     5    28 1   
    17     5    29 1   
    18     5    30 1   
    19     6     7 ar  
    20     6    13 ar  
    21     6    31 1   
    22     7     8 ar  
    23     7    10 1   
    24     8     9 ar  
    25     8    32 1   
    26     9    11 1   
    27     9    12 ar  
    28    12    13 ar  
    29    12    33 1   
    30    13    14 1   
    31    14    15 2   
    32    14    16 1   
    33    16    34 1   
    34    19    35 1   
    35    19    36 1   
    36    20    21 1   
    37    21    37 1   
    38    21    38 1   
    39    21    39 1   
@<TRIPOS>SUBSTRUCTURE
     1 UP4         1 TEMP              0 ****  ****    0 ROOT
