@<TRIPOS>MOLECULE
UP5
   78    82     1     0     0
SMALL
No Charge or Current Charge


@<TRIPOS>ATOM
      1 N9A         35.0260    61.0250    -8.2860 na         1 UP5      -0.270300
      2 C8A         36.3570    61.2910    -8.6370 cc         1 UP5       0.495700
      3 N7A         36.9970    60.1620    -9.0160 nd         1 UP5      -0.601100
      4 C5A         36.0120    59.1760    -8.8960 ca         1 UP5      -0.076600
      5 C6A         36.0910    57.7890    -9.1540 ca         1 UP5       0.419900
      6 N6A         37.2260    57.1790    -9.5880 nv         1 UP5      -1.090900
      7 N1A         35.0310    56.9870    -8.9670 nb         1 UP5      -0.343000
      8 C2A         33.8990    57.5890    -8.5290 ca         1 UP5       0.123900
      9 N3A         33.7320    58.9060    -8.2600 nb         1 UP5      -0.193000
     10 C4A         34.8160    59.6850    -8.4550 ca         1 UP5       0.096500
     11 O5F         35.8360    64.5270    -9.1250 os         1 UP5      -0.633400
     12 C5F         34.4880    64.9410    -9.4220 c3         1 UP5       0.219600
     13 C4F         33.4410    64.1500    -8.5710 c5         1 UP5       0.140300
     14 O4F         33.4970    62.7330    -8.8950 os         1 UP5      -0.461000
     15 C3F         33.5760    64.2300    -7.0110 c5         1 UP5       0.144300
     16 O3F         32.3360    63.9780    -6.3260 oh         1 UP5      -0.747000
     17 C2F         34.5550    63.0540    -6.7300 c5         1 UP5       0.087300
     18 O2F         34.4440    62.6060    -5.3580 oh         1 UP5      -0.730000
     19 C1F         34.0580    61.9990    -7.7820 c5         1 UP5       0.282300
     20 PA          36.8650    65.5620    -8.4450 p5         1 UP5       1.462800
     21 O1A         38.0390    64.7790    -7.9690 o          1 UP5      -0.856000
     22 O2A         36.1680    66.2930    -7.3490 o          1 UP5      -0.856000
     23 O3A         37.1120    66.4110    -9.7440 os         1 UP5      -0.732800
     24 PB          38.3790    67.3380    -9.6180 p5         1 UP5       1.556800
     25 O1B         39.6350    66.5800    -9.9070 o          1 UP5      -0.890500
     26 O2B         38.5040    68.1030    -8.3420 o          1 UP5      -0.890500
     27 O3B         38.0860    68.2320   -10.8810 os         1 UP5      -0.732800
     28 PG          37.2640    69.5440   -10.6020 p5         1 UP5       1.547800
     29 O1G         36.0120    69.3090    -9.8200 o          1 UP5      -0.880000
     30 O2G         38.0680    70.6570   -10.0120 o          1 UP5      -0.880000
     31 O3G         36.8160    69.8010   -12.0890 os         1 UP5      -0.713800
     32 PD          37.7690    70.6530   -13.0040 p5         1 UP5       1.561800
     33 O1D         39.2200    70.3780   -12.7980 o          1 UP5      -0.883500
     34 O2D         37.3770    70.3500   -14.4150 o          1 UP5      -0.883500
     35 O3D         37.2490    72.0780   -12.5750 os         1 UP5      -0.716800
     36 PE          38.1110    73.3220   -13.0160 p5         1 UP5       1.469800
     37 O1E         37.3780    74.5810   -12.6880 o          1 UP5      -0.846000
     38 O2E         39.4710    73.3590   -12.4050 o          1 UP5      -0.846000
     39 O5J         38.1830    73.1350   -14.6130 os         1 UP5      -0.624400
     40 C5J         37.0120    73.4310   -15.3890 c3         1 UP5       0.239600
     41 C4J         37.2820    73.0880   -16.8790 c5         1 UP5       0.109300
     42 O4J         38.1600    74.0720   -17.4850 os         1 UP5      -0.462000
     43 C3J         37.9970    71.7290   -17.1500 c5         1 UP5       0.188300
     44 O3J         37.1940    70.5600   -16.8810 oh         1 UP5      -0.800000
     45 C2J         38.3720    71.9400   -18.6590 c5         1 UP5       0.108300
     46 O2J         37.2510    71.7810   -19.5650 oh         1 UP5      -0.696000
     47 C1J         38.8620    73.4430   -18.5890 c5         1 UP5       0.308700
     48 N1U         40.3340    73.4260   -18.3530 n          1 UP5      -0.314000
     49 C2U         41.1690    73.3330   -19.4840 c          1 UP5       0.608000
     50 O2X         40.7460    73.2230   -20.6230 o          1 UP5      -0.654000
     51 N3U         42.5090    73.3510   -19.2490 ns         1 UP5      -0.474500
     52 C4U         43.1480    73.4680   -18.0590 c          1 UP5       0.591200
     53 O4U         44.3630    73.4700   -17.9710 o          1 UP5      -0.592000
     54 C5U         42.2460    73.5950   -16.9230 cc         1 UP5      -0.382200
     55 C6U         40.8760    73.5860   -17.0720 cd         1 UP5       0.044600
     56 H8A         36.7880    62.2850    -8.5990 h5         1 UP5       0.159800
     57 H61A        37.2980    56.1710    -9.4780 hn         1 UP5       0.488500
     58 H62A        38.0900    57.7130    -9.5320 hn         1 UP5       0.488500
     59 H2A         33.0330    56.9470    -8.3760 h5         1 UP5       0.010100
     60 H51A        34.3460    66.0150    -9.2400 h1         1 UP5       0.076200
     61 H52A        34.2690    64.7690   -10.4830 h1         1 UP5       0.076200
     62 H4F         32.4550    64.5250    -8.8750 h1         1 UP5       0.061700
     63 H3F         34.0100    65.1930    -6.6980 h1         1 UP5       0.161700
     64 HO3A        32.6220    63.3990    -5.5750 ho         1 UP5       0.497000
     65 H2F         35.5860    63.3650    -6.9460 h1         1 UP5       0.114700
     66 HO2A        35.1470    61.9310    -5.2010 ho         1 UP5       0.497000
     67 H1F         33.2520    61.4090    -7.3280 h2         1 UP5       0.064700
     68 H51U        36.1580    72.8350   -15.0400 h1         1 UP5       0.026200
     69 H52U        36.7410    74.4920   -15.3110 h1         1 UP5       0.026200
     70 H4J         36.3210    73.1310   -17.4110 h1         1 UP5       0.023700
     71 H3J         38.9220    71.6750   -16.5560 h1         1 UP5       0.115700
     72 HO3         37.2400    70.4430   -15.8570 ho         1 UP5       0.623000
     73 H2J         39.1890    71.2650   -18.9510 h1         1 UP5       0.064700
     74 HO2         37.6110    71.8220   -20.4800 ho         1 UP5       0.459000
     75 H1J         38.6800    73.9890   -19.5230 h2         1 UP5       0.042700
     76 H3U         43.0990    73.2700   -20.0620 hn         1 UP5       0.296500
     77 H5U         42.7250    73.7080   -15.9560 ha         1 UP5       0.267000
     78 H6U         40.1620    73.7010   -16.2540 h4         1 UP5       0.306000
@<TRIPOS>BOND
     1     1     2 1   
     2     1    10 1   
     3     1    19 1   
     4     2     3 2   
     5     2    56 1   
     6     3     4 1   
     7     4     5 ar  
     8     4    10 ar  
     9     5     6 1   
    10     5     7 ar  
    11     6    57 1   
    12     6    58 1   
    13     7     8 ar  
    14     8     9 ar  
    15     8    59 1   
    16     9    10 ar  
    17    11    12 1   
    18    11    20 1   
    19    12    13 1   
    20    12    60 1   
    21    12    61 1   
    22    13    14 1   
    23    13    15 1   
    24    13    62 1   
    25    14    19 1   
    26    15    16 1   
    27    15    17 1   
    28    15    63 1   
    29    16    64 1   
    30    17    18 1   
    31    17    19 1   
    32    17    65 1   
    33    18    66 1   
    34    19    67 1   
    35    20    21 1   
    36    20    22 1   
    37    20    23 1   
    38    23    24 1   
    39    24    25 1   
    40    24    26 1   
    41    24    27 1   
    42    27    28 1   
    43    28    29 1   
    44    28    30 1   
    45    28    31 1   
    46    31    32 1   
    47    32    33 1   
    48    32    34 1   
    49    32    35 1   
    50    35    36 1   
    51    36    37 1   
    52    36    38 1   
    53    36    39 1   
    54    39    40 1   
    55    40    41 1   
    56    40    68 1   
    57    40    69 1   
    58    41    42 1   
    59    41    43 1   
    60    41    70 1   
    61    42    47 1   
    62    43    44 1   
    63    43    45 1   
    64    43    71 1   
    65    44    72 1   
    66    45    46 1   
    67    45    47 1   
    68    45    73 1   
    69    46    74 1   
    70    47    48 1   
    71    47    75 1   
    72    48    49 1   
    73    48    55 1   
    74    49    50 2   
    75    49    51 1   
    76    51    52 1   
    77    51    76 1   
    78    52    53 2   
    79    52    54 1   
    80    54    55 2   
    81    54    77 1   
    82    55    78 1   
@<TRIPOS>SUBSTRUCTURE
     1 UP5         1 TEMP              0 ****  ****    0 ROOT
