@<TRIPOS>MOLECULE
UP5
   78    82     1     0     0
SMALL
abcg2


@<TRIPOS>ATOM
      1 N9A         35.3800    61.2570    -7.5560 na         1 UP5      -0.270300
      2 C8A         36.5180    61.0870    -8.3040 cc         1 UP5       0.495700
      3 N7A         36.9930    59.8780    -8.2520 nd         1 UP5      -0.601100
      4 C5A         36.1240    59.2020    -7.4350 ca         1 UP5      -0.076600
      5 C6A         36.0770    57.8720    -6.9810 ca         1 UP5       0.419900
      6 N6A         36.9830    56.9560    -7.3320 nv         1 UP5      -1.090900
      7 N1A         35.0710    57.5200    -6.1720 nb         1 UP5      -0.343000
      8 C2A         34.1640    58.4330    -5.8350 ca         1 UP5       0.123900
      9 N3A         34.1020    59.7030    -6.1950 nb         1 UP5      -0.193000
     10 C4A         35.1110    60.0390    -6.9970 ca         1 UP5       0.096500
     11 O5F         35.9640    63.7810   -10.1970 os         1 UP5      -0.633400
     12 C5F         34.6420    64.2630   -10.2820 c3         1 UP5       0.219600
     13 C4F         33.8860    64.0490    -8.9860 c5         1 UP5       0.140300
     14 O4F         33.8750    62.6610    -8.6430 os         1 UP5      -0.461000
     15 C3F         34.4430    64.7790    -7.7650 c5         1 UP5       0.144300
     16 O3F         33.3570    65.0880    -6.9220 oh         1 UP5      -0.747000
     17 C2F         35.3420    63.7200    -7.1350 c5         1 UP5       0.087300
     18 O2F         35.5190    63.9520    -5.7690 oh         1 UP5      -0.730000
     19 C1F         34.5570    62.4360    -7.4420 c5         1 UP5       0.282300
     20 PA          37.2680    64.7740   -10.3460 p5         1 UP5       1.462800
     21 O1A         38.4510    63.9080   -10.0540 o          1 UP5      -0.856000
     22 O2A         37.0230    66.0430    -9.5910 o          1 UP5      -0.856000
     23 O3A         37.1380    65.0360   -11.9640 os         1 UP5      -0.732800
     24 PB          38.1030    65.9510   -12.9400 p5         1 UP5       1.556800
     25 O1B         38.3930    65.1380   -14.1590 o          1 UP5      -0.890500
     26 O2B         39.2070    66.5630   -12.1390 o          1 UP5      -0.890500
     27 O3B         37.0210    67.0850   -13.4310 os         1 UP5      -0.732800
     28 PG          36.1370    68.2070   -12.6180 p5         1 UP5       1.547800
     29 O1G         34.8700    67.5780   -12.1340 o          1 UP5      -0.880000
     30 O2G         37.0000    69.0250   -11.7160 o          1 UP5      -0.880000
     31 O3G         35.6910    69.0940   -13.9410 os         1 UP5      -0.713800
     32 PD          36.4930    70.3120   -14.6630 p5         1 UP5       1.561800
     33 O1D         37.9600    70.0520   -14.7420 o          1 UP5      -0.883500
     34 O2D         35.7040    70.5820   -15.9260 o          1 UP5      -0.883500
     35 O3D         36.1320    71.5180   -13.6150 os         1 UP5      -0.716800
     36 PE          36.9840    72.8650   -13.1980 p5         1 UP5       1.469800
     37 O1E         35.9690    73.8330   -12.6820 o          1 UP5      -0.846000
     38 O2E         38.2060    72.5000   -12.4220 o          1 UP5      -0.846000
     39 O5J         37.5430    73.3670   -14.6640 os         1 UP5      -0.624400
     40 C5J         36.6990    73.9320   -15.6400 c3         1 UP5       0.239600
     41 C4J         37.3690    73.8730   -16.9930 c5         1 UP5       0.109300
     42 O4J         38.5910    74.6180   -16.9820 os         1 UP5      -0.462000
     43 C3J         37.7790    72.4810   -17.4880 c5         1 UP5       0.188300
     44 O3J         36.7380    71.7330   -18.0130 oh         1 UP5      -0.800000
     45 C2J         38.8610    72.8330   -18.5020 c5         1 UP5       0.108300
     46 O2J         38.2540    73.2540   -19.6930 oh         1 UP5      -0.696000
     47 C1J         39.5480    74.0120   -17.7890 c5         1 UP5       0.308700
     48 N1U         40.6930    73.5670   -16.9620 n          1 UP5      -0.314000
     49 C2U         41.8880    73.3740   -17.6200 c          1 UP5       0.608000
     50 O2X         42.0090    73.5390   -18.8170 o          1 UP5      -0.654000
     51 N3U         42.9300    72.9840   -16.8220 ns         1 UP5      -0.474500
     52 C4U         42.9130    72.7390   -15.4550 c          1 UP5       0.591200
     53 O4U         43.9290    72.3970   -14.8780 o          1 UP5      -0.592000
     54 C5U         41.6160    72.9330   -14.8610 cc         1 UP5      -0.382200
     55 C6U         40.5830    73.3360   -15.6230 cd         1 UP5       0.044600
     56 H8A         36.9580    61.8960    -8.8680 h5         1 UP5       0.159800
     57 H61A        36.9410    56.0300    -6.9440 hn         1 UP5       0.488500
     58 H62A        37.7790    57.2030    -7.8930 hn         1 UP5       0.488500
     59 H2A         33.3730    58.0840    -5.1790 h5         1 UP5       0.010100
     60 H51A        34.5930    65.3250   -10.5400 h1         1 UP5       0.076200
     61 H52A        34.1260    63.7200   -11.0800 h1         1 UP5       0.076200
     62 H4F         32.8550    64.3760    -9.1610 h1         1 UP5       0.061700
     63 H3F         35.0090    65.6710    -8.0490 h1         1 UP5       0.161700
     64 HO3A        33.7060    65.4000    -6.0800 ho         1 UP5       0.497000
     65 H2F         36.2990    63.7140    -7.6650 h1         1 UP5       0.114700
     66 HO2A        36.2730    63.4430    -5.4570 ho         1 UP5       0.497000
     67 H1F         33.8560    62.2330    -6.6250 h2         1 UP5       0.064700
     68 H51U        35.7480    73.3950   -15.7280 h1         1 UP5       0.026200
     69 H52U        36.4580    74.9710   -15.3910 h1         1 UP5       0.026200
     70 H4J         36.6740    74.3220   -17.7150 h1         1 UP5       0.023700
     71 H3J         38.2740    71.9490   -16.6630 h1         1 UP5       0.115700
     72 HO3         36.3120    71.2680   -17.2440 ho         1 UP5       0.623000
     73 H2J         39.5590    72.0050   -18.6710 h1         1 UP5       0.064700
     74 HO2         38.9450    73.4650   -20.3290 ho         1 UP5       0.459000
     75 H1J         39.9500    74.7350   -18.5020 h2         1 UP5       0.042700
     76 H3U         43.8130    72.8490   -17.3000 hn         1 UP5       0.296500
     77 H5U         41.4770    72.7610   -13.8050 ha         1 UP5       0.267000
     78 H6U         39.6060    73.4940   -15.1920 h4         1 UP5       0.306000
@<TRIPOS>BOND
     1     1     2 1   
     2     1    10 1   
     3     1    19 1   
     4     2     3 2   
     5     2    56 1   
     6     3     4 1   
     7     4     5 ar  
     8     4    10 ar  
     9     5     6 1   
    10     5     7 ar  
    11     6    57 1   
    12     6    58 1   
    13     7     8 ar  
    14     8     9 ar  
    15     8    59 1   
    16     9    10 ar  
    17    11    12 1   
    18    11    20 1   
    19    12    13 1   
    20    12    60 1   
    21    12    61 1   
    22    13    14 1   
    23    13    15 1   
    24    13    62 1   
    25    14    19 1   
    26    15    16 1   
    27    15    17 1   
    28    15    63 1   
    29    16    64 1   
    30    17    18 1   
    31    17    19 1   
    32    17    65 1   
    33    18    66 1   
    34    19    67 1   
    35    20    21 1   
    36    20    22 1   
    37    20    23 1   
    38    23    24 1   
    39    24    25 1   
    40    24    26 1   
    41    24    27 1   
    42    27    28 1   
    43    28    29 1   
    44    28    30 1   
    45    28    31 1   
    46    31    32 1   
    47    32    33 1   
    48    32    34 1   
    49    32    35 1   
    50    35    36 1   
    51    36    37 1   
    52    36    38 1   
    53    36    39 1   
    54    39    40 1   
    55    40    41 1   
    56    40    68 1   
    57    40    69 1   
    58    41    42 1   
    59    41    43 1   
    60    41    70 1   
    61    42    47 1   
    62    43    44 1   
    63    43    45 1   
    64    43    71 1   
    65    44    72 1   
    66    45    46 1   
    67    45    47 1   
    68    45    73 1   
    69    46    74 1   
    70    47    48 1   
    71    47    75 1   
    72    48    49 1   
    73    48    55 1   
    74    49    50 2   
    75    49    51 1   
    76    51    52 1   
    77    51    76 1   
    78    52    53 2   
    79    52    54 1   
    80    54    55 2   
    81    54    77 1   
    82    55    78 1   
@<TRIPOS>SUBSTRUCTURE
     1 UP5         1 TEMP              0 ****  ****    0 ROOT
