@<TRIPOS>MOLECULE
UP8
   18    18     1     0     0
SMALL
No Charge or Current Charge


@<TRIPOS>ATOM
      1 N1           2.8850    -0.5730     0.0980 nv         1 UP8      -1.086000
      2 C2           1.8070     0.2700     0.0510 ca         1 UP8       0.265000
      3 C3           2.0630     1.6480    -0.0120 ca         1 UP8      -0.239000
      4 C4           1.0050     2.5670    -0.0510 ca         1 UP8      -0.141000
      5 C5          -0.3180     2.1050    -0.0310 ca         1 UP8      -0.155000
      6 C6          -0.5990     0.7220     0.0270 ca         1 UP8      -0.066600
      7 C7          -2.0420     0.2540     0.0210 c          1 UP8       0.739600
      8 O8          -2.4060    -0.5000    -0.8720 o          1 UP8      -0.740500
      9 O9          -2.8110     0.7390     0.8420 o          1 UP8      -0.740500
     10 C10          0.4780    -0.2050     0.0740 ca         1 UP8      -0.145600
     11 C11          0.1980    -1.6780     0.1940 c          1 UP8       0.741600
     12 O12          0.5830    -2.4250    -0.6970 o          1 UP8      -0.742000
     13 O13         -0.3640    -2.0750     1.2060 o          1 UP8      -0.742000
     14 H11N         3.8080    -0.1950    -0.1010 hn         1 UP8       0.431000
     15 H12N         2.7330    -1.5570    -0.1200 hn         1 UP8       0.431000
     16 H3           3.0860     2.0160    -0.0270 ha         1 UP8       0.053000
     17 H4           1.2100     3.6330    -0.0980 ha         1 UP8       0.049000
     18 H5          -1.1360     2.8220    -0.0690 ha         1 UP8       0.089000
@<TRIPOS>BOND
     1     1     2 1   
     2     1    14 1   
     3     1    15 1   
     4     2     3 ar  
     5     2    10 ar  
     6     3     4 ar  
     7     3    16 1   
     8     4     5 ar  
     9     4    17 1   
    10     5     6 ar  
    11     5    18 1   
    12     6     7 1   
    13     6    10 ar  
    14     7     8 1   
    15     7     9 1   
    16    10    11 1   
    17    11    12 1   
    18    11    13 1   
@<TRIPOS>SUBSTRUCTURE
     1 UP8         1 TEMP              0 ****  ****    0 ROOT
