@<TRIPOS>MOLECULE
UP8
   18    18     1     0     0
SMALL
abcg2


@<TRIPOS>ATOM
      1 N1           2.8800    -0.6000     0.1200 nv         1 UP8      -1.086000
      2 C2           1.8100     0.2770     0.0440 ca         1 UP8       0.265000
      3 C3           2.0480     1.6560    -0.0190 ca         1 UP8      -0.239000
      4 C4           0.9920     2.5510    -0.0330 ca         1 UP8      -0.141000
      5 C5          -0.3160     2.0920     0.0170 ca         1 UP8      -0.155000
      6 C6          -0.5720     0.7230     0.0690 ca         1 UP8      -0.066600
      7 C7          -2.0190     0.2670    -0.0080 c          1 UP8       0.739600
      8 O8          -2.3010    -0.4950    -0.9520 o          1 UP8      -0.740500
      9 O9          -2.8050     0.7470     0.8320 o          1 UP8      -0.740500
     10 C10          0.4830    -0.1920     0.0990 ca         1 UP8      -0.145600
     11 C11          0.2050    -1.6770     0.2550 c          1 UP8       0.741600
     12 O12          0.8420    -2.4570    -0.4910 o          1 UP8      -0.742000
     13 O13         -0.6060    -2.0040     1.1370 o          1 UP8      -0.742000
     14 H11N         3.7470    -0.2330    -0.2380 hn         1 UP8       0.431000
     15 H12N         2.6650    -1.5150    -0.2500 hn         1 UP8       0.431000
     16 H3           3.0690     2.0190    -0.0580 ha         1 UP8       0.053000
     17 H4           1.1940     3.6140    -0.0860 ha         1 UP8       0.049000
     18 H5          -1.1380     2.7970    -0.0020 ha         1 UP8       0.089000
@<TRIPOS>BOND
     1     1     2 1   
     2     1    14 1   
     3     1    15 1   
     4     2     3 ar  
     5     2    10 ar  
     6     3     4 ar  
     7     3    16 1   
     8     4     5 ar  
     9     4    17 1   
    10     5     6 ar  
    11     5    18 1   
    12     6     7 1   
    13     6    10 ar  
    14     7     8 1   
    15     7     9 1   
    16    10    11 1   
    17    11    12 1   
    18    11    13 1   
@<TRIPOS>SUBSTRUCTURE
     1 UP8         1 TEMP              0 ****  ****    0 ROOT
