@<TRIPOS>MOLECULE
UP9
   77    82     1     0     0
SMALL
abcg2


@<TRIPOS>ATOM
      1 C14         10.6130    -7.3620   -11.3820 c          1 UP9       0.631700
      2 C11          9.5530    -6.7790   -19.2720 c6         1 UP9       0.131700
      3 C10          9.2190    -5.3290   -19.6250 c6         1 UP9      -0.087400
      4 C12          9.1870    -6.9960   -17.8010 c6         1 UP9       0.190800
      5 C01         11.4620    -6.6150   -13.6130 ca         1 UP9      -0.007200
      6 C02         11.3100    -6.3180   -14.9930 ca         1 UP9      -0.072800
      7 C03         10.0440    -6.3840   -15.5960 ca         1 UP9       0.310000
      8 C04          8.9960    -6.7550   -14.7660 ca         1 UP9       0.083000
      9 C05          9.1420    -7.0810   -13.4250 ca         1 UP9      -0.094000
     10 C06         10.3890    -7.0270   -12.8130 ca         1 UP9      -0.157600
     11 C08          9.5280    -4.6690   -17.2170 c6         1 UP9       0.199800
     12 C09          9.8360    -4.3180   -18.6630 c6         1 UP9      -0.074400
     13 C18         13.4660    -6.0930   -14.4320 cc         1 UP9      -0.070300
     14 C19         12.6120    -5.9960   -15.4940 cd         1 UP9      -0.112400
     15 C20         14.9310    -5.8430   -14.4580 c6         1 UP9      -0.012200
     16 C21         15.3050    -5.1340   -15.7700 c6         1 UP9      -0.130700
     17 C22         14.6050    -5.8000   -16.9570 c6         1 UP9      -0.066400
     18 C23         13.0880    -5.6430   -16.8650 c6         1 UP9      -0.005200
     19 C24         16.8180    -5.1610   -15.9330 c          1 UP9       0.607100
     20 C27         17.0460    -3.1010   -14.5190 c6         1 UP9       0.058500
     21 C28         17.6860    -3.2110   -13.1330 c6         1 UP9       0.143800
     22 C30         19.6040    -4.2660   -14.0650 c6         1 UP9       0.143800
     23 C31         18.9970    -4.1700   -15.4640 c6         1 UP9       0.058500
     24 C34         11.3750    -8.4120   -19.5110 c          1 UP9       0.587000
     25 C36         13.0320    -7.1930   -20.5510 c5         1 UP9       0.073000
     26 C37         11.7420    -6.3850   -20.5350 c5         1 UP9       0.079000
     27 N07          9.8920    -6.0540   -16.9550 nh         1 UP9      -0.790400
     28 N15          9.6280    -8.0130   -10.7450 nt         1 UP9      -0.595000
     29 N17         12.7810    -6.4670   -13.3110 na         1 UP9      -0.197700
     30 N25         17.5430    -4.1680   -15.3740 n          1 UP9      -0.411800
     31 N29         19.1360    -3.2330   -13.1580 n3         1 UP9      -0.712600
     32 N33         10.9460    -7.1090   -19.5580 n          1 UP9      -0.394800
     33 N35         12.5510    -8.5060   -20.1990 n          1 UP9      -0.404800
     34 O16         11.6580    -7.0470   -10.8200 o          1 UP9      -0.640100
     35 O26         17.3470    -6.0810   -16.5460 o          1 UP9      -0.606100
     36 H111         8.8990    -7.4280   -19.8670 h1         1 UP9       0.048700
     37 H102         8.1300    -5.2440   -19.5730 hc         1 UP9       0.045200
     38 H101         9.4870    -5.0990   -20.6580 hc         1 UP9       0.045200
     39 H121         9.4290    -8.0090   -17.4880 h1         1 UP9       0.059200
     40 H122         8.0940    -6.8890   -17.7410 h1         1 UP9       0.059200
     41 H051         8.2480    -7.3400   -12.8720 ha         1 UP9       0.123000
     42 H081         8.4600    -4.4920   -17.0140 h1         1 UP9       0.037700
     43 H082        10.0950    -4.0200   -16.5480 h1         1 UP9       0.037700
     44 H092         9.4470    -3.3210   -18.8820 hc         1 UP9       0.045200
     45 H091        10.9190    -4.2640   -18.7930 hc         1 UP9       0.045200
     46 H202        15.2310    -5.2440   -13.5920 hc         1 UP9       0.059700
     47 H201        15.4760    -6.7900   -14.3790 hc         1 UP9       0.059700
     48 H211        14.9400    -4.1050   -15.7190 hc         1 UP9       0.062700
     49 H222        14.9570    -5.3640   -17.8930 hc         1 UP9       0.055200
     50 H221        14.8610    -6.8620   -16.9880 hc         1 UP9       0.055200
     51 H231        12.6070    -6.2750   -17.6130 hc         1 UP9       0.059200
     52 H232        12.8040    -4.6150   -17.1200 hc         1 UP9       0.059200
     53 H271        17.2900    -2.1390   -14.9790 h1         1 UP9       0.059200
     54 H272        15.9660    -3.1400   -14.4190 h1         1 UP9       0.059200
     55 H281        17.3460    -2.3810   -12.5100 h1         1 UP9       0.060950
     56 H282        17.3310    -4.1350   -12.6650 h1         1 UP9       0.060950
     57 H301        20.6930    -4.2210   -14.1340 h1         1 UP9       0.060950
     58 H302        19.3460    -5.2430   -13.6430 h1         1 UP9       0.060950
     59 H312        19.3250    -5.0030   -16.0790 h1         1 UP9       0.059200
     60 H311        19.3170    -3.2480   -15.9600 h1         1 UP9       0.059200
     61 H321        20.8160    -2.0120   -13.3320 h1         1 UP9       0.031700
     62 H322        19.5020    -1.4970   -14.3900 h1         1 UP9       0.031700
     63 H323        19.3940    -1.2280   -12.6500 h1         1 UP9       0.031700
     64 H362        13.7510    -6.8190   -19.8100 h1         1 UP9       0.050700
     65 H361        13.5170    -7.1860   -21.5270 h1         1 UP9       0.050700
     66 H371        11.2680    -6.3900   -21.5240 h1         1 UP9       0.047700
     67 H372        11.9170    -5.3510   -20.2470 h1         1 UP9       0.047700
     68 H391        14.0560    -9.7410   -20.9180 h1         1 UP9       0.043033
     69 H392        14.1590    -9.4190   -19.1820 h1         1 UP9       0.043033
     70 H393        12.9200   -10.5150   -19.8160 h1         1 UP9       0.043033
     71 H152         9.7620    -8.2840    -9.7840 hn         1 UP9       0.316500
     72 H151         8.8400    -8.4140   -11.2210 hn         1 UP9       0.316500
     73 H171        13.1650    -6.5800   -12.3870 hn         1 UP9       0.380000
     74 F13          7.7460    -6.7880   -15.2720 f          1 UP9      -0.188000
     75 O38         10.8020    -9.3430   -18.9650 o          1 UP9      -0.580000
     76 C32         19.7300    -1.9350   -13.4100 c3         1 UP9       0.151100
     77 C39         13.4680    -9.5970   -20.0120 c3         1 UP9       0.095300
@<TRIPOS>BOND
     1     1    10 1   
     2     1    28 1   
     3     1    34 2   
     4     2     3 1   
     5     2     4 1   
     6     2    32 1   
     7     2    36 1   
     8     3    12 1   
     9     3    37 1   
    10     3    38 1   
    11     4    27 1   
    12     4    39 1   
    13     4    40 1   
    14     5     6 ar  
    15     5    10 ar  
    16     5    29 1   
    17     6     7 ar  
    18     6    14 1   
    19     7     8 ar  
    20     7    27 1   
    21     8     9 ar  
    22     8    74 1   
    23     9    10 ar  
    24     9    41 1   
    25    11    12 1   
    26    11    27 1   
    27    11    42 1   
    28    11    43 1   
    29    12    44 1   
    30    12    45 1   
    31    13    14 2   
    32    13    15 1   
    33    13    29 1   
    34    14    18 1   
    35    15    16 1   
    36    15    46 1   
    37    15    47 1   
    38    16    17 1   
    39    16    19 1   
    40    16    48 1   
    41    17    18 1   
    42    17    49 1   
    43    17    50 1   
    44    18    51 1   
    45    18    52 1   
    46    19    30 1   
    47    19    35 2   
    48    20    21 1   
    49    20    30 1   
    50    20    53 1   
    51    20    54 1   
    52    21    31 1   
    53    21    55 1   
    54    21    56 1   
    55    22    23 1   
    56    22    31 1   
    57    22    57 1   
    58    22    58 1   
    59    23    30 1   
    60    23    59 1   
    61    23    60 1   
    62    24    32 1   
    63    24    33 1   
    64    24    75 2   
    65    25    26 1   
    66    25    33 1   
    67    25    64 1   
    68    25    65 1   
    69    26    32 1   
    70    26    66 1   
    71    26    67 1   
    72    28    71 1   
    73    28    72 1   
    74    29    73 1   
    75    31    76 1   
    76    33    77 1   
    77    61    76 1   
    78    62    76 1   
    79    63    76 1   
    80    68    77 1   
    81    69    77 1   
    82    70    77 1   
@<TRIPOS>SUBSTRUCTURE
     1 UP9         1 TEMP              0 ****  ****    0 ROOT
