@<TRIPOS>MOLECULE
UP9
   77    82     1     0     0
SMALL
No Charge or Current Charge


@<TRIPOS>ATOM
      1 C14         10.2740    -7.1500   -11.1660 c          1 UP9       0.631700
      2 C11          9.6900    -6.9340   -19.3030 c6         1 UP9       0.131700
      3 C10          9.0550    -5.5660   -19.7000 c6         1 UP9      -0.087400
      4 C12          9.4250    -7.2070   -17.7830 c6         1 UP9       0.190800
      5 C01         11.2400    -6.6190   -13.4690 ca         1 UP9      -0.007200
      6 C02         11.1320    -6.3770   -14.8180 ca         1 UP9      -0.072800
      7 C03          9.8900    -6.3600   -15.4830 ca         1 UP9       0.310000
      8 C04          8.7440    -6.6280   -14.6830 ca         1 UP9       0.083000
      9 C05          8.8580    -6.8860   -13.2970 ca         1 UP9      -0.094000
     10 C06         10.1230    -6.8830   -12.6520 ca         1 UP9      -0.157600
     11 C08          9.1320    -4.8000   -17.2560 c6         1 UP9       0.199800
     12 C09          9.4290    -4.4190   -18.7240 c6         1 UP9      -0.074400
     13 C18         13.3710    -6.2640   -14.2210 cc         1 UP9      -0.070300
     14 C19         12.4890    -6.1640   -15.2890 cd         1 UP9      -0.112400
     15 C20         14.8700    -6.1120   -14.2780 c6         1 UP9      -0.012200
     16 C21         15.2830    -5.4690   -15.6300 c6         1 UP9      -0.130700
     17 C22         14.5120    -6.0670   -16.8400 c6         1 UP9      -0.066400
     18 C23         12.9790    -5.8780   -16.6930 c6         1 UP9      -0.005200
     19 C24         16.8210    -5.4270   -15.8160 c          1 UP9       0.607100
     20 C27         17.1140    -3.2990   -14.3960 c6         1 UP9       0.058500
     21 C28         18.0140    -3.3860   -13.1280 c6         1 UP9       0.143800
     22 C30         19.8810    -4.2200   -14.4760 c6         1 UP9       0.143800
     23 C31         19.0080    -4.1350   -15.7610 c6         1 UP9       0.058500
     24 C34         11.7420    -8.3340   -19.7280 c          1 UP9       0.587000
     25 C36         13.3320    -6.7690   -20.5620 c5         1 UP9       0.073000
     26 C37         12.0050    -6.0120   -20.1880 c5         1 UP9       0.079000
     27 N07          9.7900    -6.0760   -16.8730 nh         1 UP9      -0.790400
     28 N15          9.1600    -7.3960   -10.4460 nt         1 UP9      -0.595000
     29 N17         12.5750    -6.5530   -13.1030 na         1 UP9      -0.197700
     30 N25         17.5530    -4.2670   -15.4510 n          1 UP9      -0.411800
     31 N29         19.4650    -3.2220   -13.4450 n3         1 UP9      -0.712600
     32 N33         11.1280    -7.0970   -19.6780 n          1 UP9      -0.394800
     33 N35         13.0250    -8.1680   -20.2100 n          1 UP9      -0.404800
     34 O16         11.3530    -7.1510   -10.5940 o          1 UP9      -0.640100
     35 O26         17.3950    -6.3950   -16.3000 o          1 UP9      -0.606100
     36 H111         9.1450    -7.7070   -19.8640 h1         1 UP9       0.048700
     37 H102         7.9630    -5.6800   -19.6930 hc         1 UP9       0.045200
     38 H101         9.3150    -5.2980   -20.7330 hc         1 UP9       0.045200
     39 H121         9.9660    -8.1150   -17.4840 h1         1 UP9       0.059200
     40 H122         8.3540    -7.4310   -17.6650 h1         1 UP9       0.059200
     41 H051         7.9470    -7.0830   -12.7400 ha         1 UP9       0.123000
     42 H081         8.0440    -4.8830   -17.1240 h1         1 UP9       0.037700
     43 H082         9.4810    -3.9860   -16.6030 h1         1 UP9       0.037700
     44 H092         8.8620    -3.5160   -18.9850 hc         1 UP9       0.045200
     45 H091        10.4850    -4.1450   -18.8200 hc         1 UP9       0.045200
     46 H202        15.2360    -5.5120   -13.4350 hc         1 UP9       0.059700
     47 H201        15.3450    -7.0980   -14.1820 hc         1 UP9       0.059700
     48 H211        14.9590    -4.4250   -15.5550 hc         1 UP9       0.062700
     49 H222        14.8510    -5.6010   -17.7750 hc         1 UP9       0.055200
     50 H221        14.7390    -7.1390   -16.9260 hc         1 UP9       0.055200
     51 H231        12.4730    -6.5420   -17.4020 hc         1 UP9       0.059200
     52 H232        12.7030    -4.8530   -16.9760 hc         1 UP9       0.059200
     53 H271        17.1600    -2.2820   -14.8090 h1         1 UP9       0.059200
     54 H272        16.0770    -3.4660   -14.0860 h1         1 UP9       0.059200
     55 H281        17.6880    -2.6290   -12.3990 h1         1 UP9       0.060950
     56 H282        17.8470    -4.3660   -12.6560 h1         1 UP9       0.060950
     57 H301        20.9390    -4.0830   -14.7460 h1         1 UP9       0.060950
     58 H302        19.7920    -5.2380   -14.0670 h1         1 UP9       0.060950
     59 H312        19.3320    -4.9100   -16.4690 h1         1 UP9       0.059200
     60 H311        19.1780    -3.1690   -16.2560 h1         1 UP9       0.059200
     61 H321        20.9250    -1.7510   -13.9460 h1         1 UP9       0.031700
     62 H322        19.3350    -1.4810   -14.6940 h1         1 UP9       0.031700
     63 H323        19.5760    -1.1470   -12.9650 h1         1 UP9       0.031700
     64 H362        14.1880    -6.3930   -19.9850 h1         1 UP9       0.050700
     65 H361        13.5630    -6.6710   -21.6310 h1         1 UP9       0.050700
     66 H371        11.5720    -5.5180   -21.0670 h1         1 UP9       0.047700
     67 H372        12.2030    -5.2560   -19.4200 h1         1 UP9       0.047700
     68 H391        14.9110    -8.9550   -20.7510 h1         1 UP9       0.043033
     69 H392        14.1050    -9.7870   -19.3900 h1         1 UP9       0.043033
     70 H393        13.5210   -10.0350   -21.0640 h1         1 UP9       0.043033
     71 H152         9.2480    -7.5750    -9.4570 hn         1 UP9       0.316500
     72 H151         8.2570    -7.4010   -10.8900 hn         1 UP9       0.316500
     73 H171        12.9110    -6.6980   -12.1550 hn         1 UP9       0.380000
     74 F13          7.5040    -6.6430   -15.2320 f          1 UP9      -0.188000
     75 O38         11.2350    -9.3990   -19.4110 o          1 UP9      -0.580000
     76 C32         19.8420    -1.8280   -13.7840 c3         1 UP9       0.151100
     77 C39         13.9470    -9.3060   -20.3630 c3         1 UP9       0.095300
@<TRIPOS>BOND
     1     1    10 1   
     2     1    28 1   
     3     1    34 2   
     4     2     3 1   
     5     2     4 1   
     6     2    32 1   
     7     2    36 1   
     8     3    12 1   
     9     3    37 1   
    10     3    38 1   
    11     4    27 1   
    12     4    39 1   
    13     4    40 1   
    14     5     6 ar  
    15     5    10 ar  
    16     5    29 1   
    17     6     7 ar  
    18     6    14 1   
    19     7     8 ar  
    20     7    27 1   
    21     8     9 ar  
    22     8    74 1   
    23     9    10 ar  
    24     9    41 1   
    25    11    12 1   
    26    11    27 1   
    27    11    42 1   
    28    11    43 1   
    29    12    44 1   
    30    12    45 1   
    31    13    14 2   
    32    13    15 1   
    33    13    29 1   
    34    14    18 1   
    35    15    16 1   
    36    15    46 1   
    37    15    47 1   
    38    16    17 1   
    39    16    19 1   
    40    16    48 1   
    41    17    18 1   
    42    17    49 1   
    43    17    50 1   
    44    18    51 1   
    45    18    52 1   
    46    19    30 1   
    47    19    35 2   
    48    20    21 1   
    49    20    30 1   
    50    20    53 1   
    51    20    54 1   
    52    21    31 1   
    53    21    55 1   
    54    21    56 1   
    55    22    23 1   
    56    22    31 1   
    57    22    57 1   
    58    22    58 1   
    59    23    30 1   
    60    23    59 1   
    61    23    60 1   
    62    24    32 1   
    63    24    33 1   
    64    24    75 2   
    65    25    26 1   
    66    25    33 1   
    67    25    64 1   
    68    25    65 1   
    69    26    32 1   
    70    26    66 1   
    71    26    67 1   
    72    28    71 1   
    73    28    72 1   
    74    29    73 1   
    75    31    76 1   
    76    33    77 1   
    77    61    76 1   
    78    62    76 1   
    79    63    76 1   
    80    68    77 1   
    81    69    77 1   
    82    70    77 1   
@<TRIPOS>SUBSTRUCTURE
     1 UP9         1 TEMP              0 ****  ****    0 ROOT
