@<TRIPOS>MOLECULE
UPB
   77    80     1     0     0
SMALL
No Charge or Current Charge


@<TRIPOS>ATOM
      1 CHA         -8.1770   -22.5410   -21.2050 ce         1 UPB       0.038800
      2 NA          -6.2080   -22.1980   -19.7130 na         1 UPB      -0.079000
      3 C1A         -7.2060   -21.6820   -20.5250 cc         1 UPB      -0.129800
      4 C2A         -7.0450   -20.3180   -20.4980 cd         1 UPB      -0.049300
      5 C3A         -5.9330   -20.0180   -19.6580 cd         1 UPB      -0.127300
      6 C4A         -5.4110   -21.1940   -19.1750 cc         1 UPB      -0.162800
      7 CMA         -5.4080   -18.6350   -19.3490 c3         1 UPB      -0.008800
      8 CAA         -7.9000   -19.2980   -21.2230 c3         1 UPB       0.000900
      9 CBA         -7.2300   -18.6880   -22.4790 c3         1 UPB      -0.205400
     10 CGA         -6.9870   -19.7650   -23.5510 c          1 UPB       0.705000
     11 O1A         -7.9070   -20.0320   -24.3100 o          1 UPB      -0.723000
     12 O2A         -5.8920   -20.3040   -23.5990 o          1 UPB      -0.723000
     13 CHB         -4.2740   -21.4170   -18.2820 ce         1 UPB      -0.089200
     14 NB          -4.4410   -23.7390   -17.4560 ns         1 UPB      -0.406100
     15 C1B         -3.8310   -22.5200   -17.5800 cd         1 UPB      -0.021400
     16 C2B         -2.5910   -22.6130   -16.8390 cd         1 UPB       0.000800
     17 C3B         -2.5210   -23.9140   -16.3440 cc         1 UPB      -0.190200
     18 C4B         -3.7450   -24.6420   -16.7290 c          1 UPB       0.561200
     19 CMB         -1.5880   -21.5000   -16.6340 c3         1 UPB      -0.046900
     20 OB          -4.0910   -25.7840   -16.4680 o          1 UPB      -0.566000
     21 CAB         -1.4930   -24.5760   -15.5310 ce         1 UPB      -0.119000
     22 CBB         -0.1880   -24.2410   -15.4550 c2         1 UPB      -0.344000
     23 NC          -4.8750   -26.2070   -20.2220 ns         1 UPB      -0.404100
     24 C1C         -3.5680   -26.4790   -19.9740 c          1 UPB       0.570000
     25 C2C         -3.5830   -28.0110   -19.7840 c5         1 UPB      -0.126500
     26 C3C         -5.0600   -28.4320   -19.8370 ce         1 UPB      -0.074200
     27 C4C         -5.8160   -27.2230   -20.2260 ce         1 UPB       0.069600
     28 CMC         -2.7320   -28.7020   -20.8760 c3         1 UPB      -0.068100
     29 CBC         -6.9500   -30.1900   -19.5230 c3         1 UPB      -0.053900
     30 ND          -7.2930   -24.7620   -20.7720 nd         1 UPB      -0.671300
     31 C1D         -7.8400   -25.9680   -20.8930 cc         1 UPB       0.487900
     32 C2D         -9.1840   -25.9330   -21.3830 cc         1 UPB      -0.301800
     33 C3D         -9.5010   -24.6170   -21.5790 cd         1 UPB       0.001800
     34 C4D         -8.3120   -23.9180   -21.1920 cd         1 UPB       0.025600
     35 CGD        -12.1930   -23.2130   -24.0060 c          1 UPB       0.731000
     36 O1D        -12.3880   -22.0100   -23.9420 o          1 UPB      -0.749500
     37 O2D        -13.0480   -24.0200   -24.3370 o          1 UPB      -0.749500
     38 H1          -9.0250   -22.0030   -21.6220 ha         1 UPB       0.254000
     39 H3          -6.0800   -23.1940   -19.5780 hn         1 UPB       0.378000
     40 H4          -6.1790   -17.8660   -19.4710 hc         1 UPB       0.028700
     41 H5          -5.0500   -18.5680   -18.3150 hc         1 UPB       0.028700
     42 H6          -4.5730   -18.3790   -20.0110 hc         1 UPB       0.028700
     43 H7          -8.1580   -18.4840   -20.5350 hc         1 UPB       0.031200
     44 H8          -8.8600   -19.7380   -21.5140 hc         1 UPB       0.031200
     45 H9          -6.2840   -18.2430   -22.1480 hc         1 UPB       0.014700
     46 H10         -7.9540   -17.9500   -22.8460 hc         1 UPB       0.014700
     47 H12         -3.6210   -20.5490   -18.2150 ha         1 UPB       0.187000
     48 H14         -1.1010   -21.5820   -15.6570 hc         1 UPB       0.046700
     49 H15         -0.8120   -21.5230   -17.4080 hc         1 UPB       0.046700
     50 H16         -2.0600   -20.5120   -16.6560 hc         1 UPB       0.046700
     51 H17         -1.8510   -25.4480   -14.9770 ha         1 UPB       0.177000
     52 H18          0.5040   -24.8100   -14.8330 ha         1 UPB       0.154000
     53 H19          0.2420   -23.4150   -16.0190 ha         1 UPB       0.154000
     54 H20         -5.1880   -25.2730   -20.4520 hn         1 UPB       0.370500
     55 H21         -3.1090   -28.2360   -18.8230 hc         1 UPB       0.093700
     56 H23         -2.7260   -29.7900   -20.7420 hc         1 UPB       0.036700
     57 H24         -3.1260   -28.4890   -21.8770 hc         1 UPB       0.036700
     58 H25         -1.6920   -28.3570   -20.8430 hc         1 UPB       0.036700
     59 H26         -4.8040   -30.4400   -19.2670 ha         1 UPB       0.159000
     60 H28         -6.9890   -31.2010   -19.0990 hc         1 UPB       0.040700
     61 H29         -7.5970   -29.5560   -18.9050 hc         1 UPB       0.040700
     62 H30         -7.3720   -30.2470   -20.5340 hc         1 UPB       0.040700
     63 H36        -11.0460   -23.1170   -21.5120 hc         1 UPB       0.047700
     64 H37        -11.6360   -24.7260   -21.8250 hc         1 UPB       0.047700
     65 H38        -10.6150   -24.7070   -24.0690 hc         1 UPB       0.044200
     66 H39        -10.0460   -22.9900   -23.7470 hc         1 UPB       0.044200
     67 H2          -5.3640   -23.9780   -17.7910 hn         1 UPB       0.344500
     68 CMD        -10.0380   -27.1560   -21.6240 c3         1 UPB      -0.006900
     69 CHD         -7.1350   -27.0940   -20.5550 cf         1 UPB      -0.290600
     70 OC          -2.6760   -25.6570   -19.8330 o          1 UPB      -0.543000
     71 H31         -7.7400   -27.9880   -20.5960 ha         1 UPB       0.184000
     72 H33        -10.3350   -27.6170   -20.6750 hc         1 UPB       0.025700
     73 H34        -10.9510   -26.9130   -22.1800 hc         1 UPB       0.025700
     74 H35         -9.4940   -27.9060   -22.2110 hc         1 UPB       0.025700
     75 CAD        -10.8150   -24.0380   -22.0600 c3         1 UPB      -0.016200
     76 CAC         -5.5270   -29.6720   -19.5470 c2         1 UPB      -0.204200
     77 CBD        -10.8200   -23.7480   -23.5790 c3         1 UPB      -0.209400
@<TRIPOS>BOND
     1     1     3 1   
     2     1    34 2   
     3     1    38 1   
     4     2     3 1   
     5     2     6 1   
     6     2    39 1   
     7     3     4 2   
     8     4     5 1   
     9     4     8 1   
    10     5     6 2   
    11     5     7 1   
    12     6    13 1   
    13     7    40 1   
    14     7    41 1   
    15     7    42 1   
    16     8     9 1   
    17     8    43 1   
    18     8    44 1   
    19     9    10 1   
    20     9    45 1   
    21     9    46 1   
    22    10    11 1   
    23    10    12 1   
    24    13    15 2   
    25    13    47 1   
    26    14    15 1   
    27    14    18 1   
    28    14    67 1   
    29    15    16 1   
    30    16    17 2   
    31    16    19 1   
    32    17    18 1   
    33    17    21 1   
    34    18    20 2   
    35    19    48 1   
    36    19    49 1   
    37    19    50 1   
    38    21    22 2   
    39    21    51 1   
    40    22    52 1   
    41    22    53 1   
    42    23    24 1   
    43    23    27 1   
    44    23    54 1   
    45    24    25 1   
    46    24    70 2   
    47    25    26 1   
    48    25    28 1   
    49    25    55 1   
    50    26    27 1   
    51    26    76 2   
    52    27    69 2   
    53    28    56 1   
    54    28    57 1   
    55    28    58 1   
    56    29    60 1   
    57    29    61 1   
    58    29    62 1   
    59    29    76 1   
    60    30    31 2   
    61    30    34 1   
    62    31    32 1   
    63    31    69 1   
    64    32    33 2   
    65    32    68 1   
    66    33    34 1   
    67    33    75 1   
    68    35    36 1   
    69    35    37 1   
    70    35    77 1   
    71    59    76 1   
    72    63    75 1   
    73    64    75 1   
    74    65    77 1   
    75    66    77 1   
    76    68    72 1   
    77    68    73 1   
    78    68    74 1   
    79    69    71 1   
    80    75    77 1   
@<TRIPOS>SUBSTRUCTURE
     1 UPB         1 TEMP              0 ****  ****    0 ROOT
