@<TRIPOS>MOLECULE
UPB
   77    80     1     0     0
SMALL
abcg2


@<TRIPOS>ATOM
      1 CHA         -8.3040   -22.4100   -20.9930 ce         1 UPB       0.038800
      2 NA          -6.2380   -22.2080   -19.7130 na         1 UPB      -0.079000
      3 C1A         -7.2650   -21.6450   -20.4090 cc         1 UPB      -0.129800
      4 C2A         -7.0760   -20.2570   -20.3900 cd         1 UPB      -0.049300
      5 C3A         -5.8880   -20.0120   -19.6870 cd         1 UPB      -0.127300
      6 C4A         -5.3860   -21.2510   -19.2620 cc         1 UPB      -0.162800
      7 CMA         -5.3040   -18.6670   -19.4120 c3         1 UPB      -0.008800
      8 CAA         -7.9500   -19.2170   -21.0100 c3         1 UPB       0.000900
      9 CBA         -7.4740   -18.7820   -22.4000 c3         1 UPB      -0.205400
     10 CGA         -7.6170   -19.8890   -23.4620 c          1 UPB       0.705000
     11 O1A         -8.7610   -20.3810   -23.5870 o          1 UPB      -0.723000
     12 O2A         -6.6010   -20.1930   -24.1150 o          1 UPB      -0.723000
     13 CHB         -4.2090   -21.5060   -18.4930 ce         1 UPB      -0.089200
     14 NB          -4.6530   -23.7430   -17.5800 ns         1 UPB      -0.406100
     15 C1B         -3.8760   -22.6170   -17.7960 cd         1 UPB      -0.021400
     16 C2B         -2.5950   -22.8690   -17.1490 cd         1 UPB       0.000800
     17 C3B         -2.6320   -24.1130   -16.6050 cc         1 UPB      -0.190200
     18 C4B         -3.9770   -24.6760   -16.8400 c          1 UPB       0.561200
     19 CMB         -1.4680   -21.9030   -17.1370 c3         1 UPB      -0.046900
     20 OB          -4.4260   -25.7440   -16.4620 o          1 UPB      -0.566000
     21 CAB         -1.6370   -24.8710   -15.8740 ce         1 UPB      -0.119000
     22 CBB         -0.3140   -24.6900   -15.8890 c2         1 UPB      -0.344000
     23 NC          -5.0190   -26.0150   -20.0440 ns         1 UPB      -0.404100
     24 C1C         -3.7180   -26.2760   -19.7400 c          1 UPB       0.570000
     25 C2C         -3.6320   -27.7350   -19.3430 c5         1 UPB      -0.126500
     26 C3C         -5.0310   -28.2550   -19.6030 ce         1 UPB      -0.074200
     27 C4C         -5.8540   -27.1110   -20.0050 ce         1 UPB       0.069600
     28 CMC         -2.5150   -28.4600   -20.0820 c3         1 UPB      -0.068100
     29 CBC         -6.7290   -30.1480   -19.6930 c3         1 UPB      -0.053900
     30 ND          -7.3980   -24.6210   -20.5530 nd         1 UPB      -0.671300
     31 C1D         -7.8730   -25.8460   -20.6890 cc         1 UPB       0.487900
     32 C2D         -9.2100   -25.8480   -21.2670 cc         1 UPB      -0.301800
     33 C3D         -9.5220   -24.5440   -21.5000 cd         1 UPB       0.001800
     34 C4D         -8.3830   -23.7730   -21.0270 cd         1 UPB       0.025600
     35 CGD        -11.7800   -23.1900   -24.3870 c          1 UPB       0.731000
     36 O1D        -12.8060   -22.9480   -23.7210 o          1 UPB      -0.749500
     37 O2D        -11.6330   -23.0290   -25.6160 o          1 UPB      -0.749500
     38 H1          -9.1050   -21.8420   -21.4460 ha         1 UPB       0.254000
     39 H3          -6.1330   -23.2130   -19.6840 hn         1 UPB       0.378000
     40 H4          -5.9880   -18.0480   -18.8280 hc         1 UPB       0.028700
     41 H5          -4.3690   -18.7250   -18.8560 hc         1 UPB       0.028700
     42 H6          -5.1000   -18.1270   -20.3380 hc         1 UPB       0.028700
     43 H7          -7.9750   -18.3440   -20.3520 hc         1 UPB       0.031200
     44 H8          -8.9790   -19.5730   -21.0800 hc         1 UPB       0.031200
     45 H9          -6.4390   -18.4360   -22.3420 hc         1 UPB       0.014700
     46 H10         -8.0760   -17.9220   -22.7110 hc         1 UPB       0.014700
     47 H12         -3.4920   -20.6960   -18.4690 ha         1 UPB       0.187000
     48 H14         -0.9250   -21.9580   -16.1930 hc         1 UPB       0.046700
     49 H15         -0.7520   -22.1170   -17.9330 hc         1 UPB       0.046700
     50 H16         -1.8040   -20.8760   -17.2680 hc         1 UPB       0.046700
     51 H17         -2.0340   -25.6810   -15.2700 ha         1 UPB       0.177000
     52 H18          0.3290   -25.3210   -15.2910 ha         1 UPB       0.154000
     53 H19          0.1760   -23.9420   -16.4970 ha         1 UPB       0.154000
     54 H20         -5.3730   -25.1130   -20.3420 hn         1 UPB       0.370500
     55 H21         -3.4210   -27.7580   -18.2680 hc         1 UPB       0.093700
     56 H23         -2.4510   -29.4980   -19.7590 hc         1 UPB       0.036700
     57 H24         -2.6830   -28.4510   -21.1590 hc         1 UPB       0.036700
     58 H25         -1.5540   -27.9910   -19.8780 hc         1 UPB       0.036700
     59 H26         -4.6040   -30.2180   -19.1440 ha         1 UPB       0.159000
     60 H28         -6.7020   -31.2180   -19.4950 hc         1 UPB       0.040700
     61 H29         -7.4910   -29.7110   -19.0440 hc         1 UPB       0.040700
     62 H30         -7.0700   -30.0120   -20.7220 hc         1 UPB       0.040700
     63 H36        -11.0260   -23.0470   -21.6530 hc         1 UPB       0.047700
     64 H37        -11.5840   -24.6640   -21.9880 hc         1 UPB       0.047700
     65 H38        -10.2410   -24.6760   -24.1190 hc         1 UPB       0.044200
     66 H39         -9.7160   -23.0480   -23.7940 hc         1 UPB       0.044200
     67 H2          -5.6510   -23.7940   -17.7120 hn         1 UPB       0.344500
     68 CMD        -10.0170   -27.0680   -21.5500 c3         1 UPB      -0.006900
     69 CHD         -7.1710   -27.0440   -20.3270 cf         1 UPB      -0.290600
     70 OC          -2.8130   -25.4730   -19.7920 o          1 UPB      -0.543000
     71 H31         -7.7440   -27.9570   -20.3370 ha         1 UPB       0.184000
     72 H33        -10.1680   -27.6710   -20.6520 hc         1 UPB       0.025700
     73 H34        -11.0000   -26.8110   -21.9420 hc         1 UPB       0.025700
     74 H35         -9.5320   -27.7130   -22.2860 hc         1 UPB       0.025700
     75 CAD        -10.7450   -23.9830   -22.1420 c3         1 UPB      -0.016200
     76 CAC         -5.3860   -29.5360   -19.4640 c2         1 UPB      -0.204200
     77 CBD        -10.5490   -23.7420   -23.6380 c3         1 UPB      -0.209400
@<TRIPOS>BOND
     1     1     3 1   
     2     1    34 2   
     3     1    38 1   
     4     2     3 1   
     5     2     6 1   
     6     2    39 1   
     7     3     4 2   
     8     4     5 1   
     9     4     8 1   
    10     5     6 2   
    11     5     7 1   
    12     6    13 1   
    13     7    40 1   
    14     7    41 1   
    15     7    42 1   
    16     8     9 1   
    17     8    43 1   
    18     8    44 1   
    19     9    10 1   
    20     9    45 1   
    21     9    46 1   
    22    10    11 1   
    23    10    12 1   
    24    13    15 2   
    25    13    47 1   
    26    14    15 1   
    27    14    18 1   
    28    14    67 1   
    29    15    16 1   
    30    16    17 2   
    31    16    19 1   
    32    17    18 1   
    33    17    21 1   
    34    18    20 2   
    35    19    48 1   
    36    19    49 1   
    37    19    50 1   
    38    21    22 2   
    39    21    51 1   
    40    22    52 1   
    41    22    53 1   
    42    23    24 1   
    43    23    27 1   
    44    23    54 1   
    45    24    25 1   
    46    24    70 2   
    47    25    26 1   
    48    25    28 1   
    49    25    55 1   
    50    26    27 1   
    51    26    76 2   
    52    27    69 2   
    53    28    56 1   
    54    28    57 1   
    55    28    58 1   
    56    29    60 1   
    57    29    61 1   
    58    29    62 1   
    59    29    76 1   
    60    30    31 2   
    61    30    34 1   
    62    31    32 1   
    63    31    69 1   
    64    32    33 2   
    65    32    68 1   
    66    33    34 1   
    67    33    75 1   
    68    35    36 1   
    69    35    37 1   
    70    35    77 1   
    71    59    76 1   
    72    63    75 1   
    73    64    75 1   
    74    65    77 1   
    75    66    77 1   
    76    68    72 1   
    77    68    73 1   
    78    68    74 1   
    79    69    71 1   
    80    75    77 1   
@<TRIPOS>SUBSTRUCTURE
     1 UPB         1 TEMP              0 ****  ****    0 ROOT
