@<TRIPOS>MOLECULE
UPD
   39    40     1     0     0
SMALL
abcg2


@<TRIPOS>ATOM
      1 N1           6.8530    -1.0460    26.2380 ns         1 UPD      -0.147000
      2 C5           6.6210    -2.4120    19.2510 c3         1 UPD      -0.177100
      3 C6           7.7480    -2.0160    21.8800 c6         1 UPD       0.098000
      4 C7           6.9950    -1.3770    23.0400 c6         1 UPD      -0.090900
      5 C8           6.3850    -0.2210    27.2700 ca         1 UPD      -0.122000
      6 C10          4.8760     0.3780    29.0300 ca         1 UPD      -0.166000
      7 C13          7.1130     0.9080    27.6030 ca         1 UPD       0.335900
      8 O1           5.9900    -4.5680    20.0410 o          1 UPD      -0.601100
      9 N            7.1310    -3.2680    21.4880 n          1 UPD      -0.415800
     10 C3           7.0600    -4.2380    22.5680 c6         1 UPD       0.098000
     11 C2           6.2820    -3.6750    23.7510 c6         1 UPD      -0.090900
     12 C1           6.8940    -2.3580    24.2160 c6         1 UPD      -0.140700
     13 C            6.0950    -1.7180    25.3340 c          1 UPD       0.606100
     14 O            4.8800    -1.7730    25.3930 o          1 UPD      -0.574100
     15 N2           6.7790     1.7390    28.5870 nb         1 UPD      -0.739000
     16 C11          5.6890     1.4900    29.2770 ca         1 UPD       0.568300
     17 O2           5.3200     2.3140    30.2620 os         1 UPD      -0.459300
     18 C12          6.1230     3.4580    30.5090 c3         1 UPD       0.159900
     19 C9           5.2340    -0.4870    28.0210 ca         1 UPD      -0.047000
     20 H1           7.8460    -1.0080    26.0620 hn         1 UPD       0.150000
     21 H2           6.1460    -2.7630    18.3380 hc         1 UPD       0.060033
     22 H3           6.1030    -1.5100    19.5780 hc         1 UPD       0.060033
     23 H4           7.6490    -2.1320    19.0180 hc         1 UPD       0.060033
     24 H5           8.7830    -2.2120    22.1800 h1         1 UPD       0.055700
     25 H6           7.7910    -1.3270    21.0420 h1         1 UPD       0.055700
     26 H7           7.5160    -0.4660    23.3410 hc         1 UPD       0.062700
     27 H8           5.9930    -1.0890    22.7100 hc         1 UPD       0.062700
     28 H9           3.9910     0.1980    29.6250 ha         1 UPD       0.141000
     29 H10          8.0180     1.1530    27.0550 h4         1 UPD       0.013100
     30 H11          6.5950    -5.1500    22.2060 h1         1 UPD       0.055700
     31 H12          8.0790    -4.4900    22.8790 h1         1 UPD       0.055700
     32 H13          5.2410    -3.5240    23.4590 hc         1 UPD       0.062700
     33 H14          6.2900    -4.4060    24.5620 hc         1 UPD       0.062700
     34 H15          7.9120    -2.5570    24.5750 hc         1 UPD       0.052700
     35 H16          5.6540     3.9780    31.3400 h1         1 UPD       0.045700
     36 H17          7.1440     3.1880    30.7830 h1         1 UPD       0.045700
     37 H18          6.1600     4.1220    29.6440 h1         1 UPD       0.045700
     38 H19          4.6310    -1.3620    27.8320 ha         1 UPD       0.146000
     39 C4           6.5510    -3.5080    20.2910 c          1 UPD       0.610100
@<TRIPOS>BOND
     1     1     5 1   
     2     1    13 1   
     3     1    20 1   
     4     2    21 1   
     5     2    22 1   
     6     2    23 1   
     7     2    39 1   
     8     3     4 1   
     9     3     9 1   
    10     3    24 1   
    11     3    25 1   
    12     4    12 1   
    13     4    26 1   
    14     4    27 1   
    15     5     7 ar  
    16     5    19 ar  
    17     6    16 ar  
    18     6    19 ar  
    19     6    28 1   
    20     7    15 ar  
    21     7    29 1   
    22     8    39 2   
    23     9    10 1   
    24     9    39 1   
    25    10    11 1   
    26    10    30 1   
    27    10    31 1   
    28    11    12 1   
    29    11    32 1   
    30    11    33 1   
    31    12    13 1   
    32    12    34 1   
    33    13    14 2   
    34    15    16 ar  
    35    16    17 1   
    36    17    18 1   
    37    18    35 1   
    38    18    36 1   
    39    18    37 1   
    40    19    38 1   
@<TRIPOS>SUBSTRUCTURE
     1 UPD         1 TEMP              0 ****  ****    0 ROOT
