@<TRIPOS>MOLECULE
UPD
   39    40     1     0     0
SMALL
No Charge or Current Charge


@<TRIPOS>ATOM
      1 N1           6.6450    -0.5790    26.0060 ns         1 UPD      -0.147000
      2 C5           6.4380    -3.3530    19.0710 c3         1 UPD      -0.177100
      3 C6           7.5910    -1.9370    21.4690 c6         1 UPD       0.098000
      4 C7           6.6790    -1.2250    22.4980 c6         1 UPD      -0.090900
      5 C8           6.2260     0.1420    27.1640 ca         1 UPD      -0.122000
      6 C10          4.5940     1.0910    28.6720 ca         1 UPD      -0.166000
      7 C13          7.2150     0.6640    28.0230 ca         1 UPD       0.335900
      8 O1           6.3350    -5.2530    20.5110 o          1 UPD      -0.601100
      9 N            7.3200    -3.4020    21.4550 n          1 UPD      -0.415800
     10 C3           7.5680    -4.0470    22.7730 c6         1 UPD       0.098000
     11 C2           6.6590    -3.4300    23.8630 c6         1 UPD      -0.090900
     12 C1           6.8080    -1.8830    23.9010 c6         1 UPD      -0.140700
     13 C            5.9370    -1.2040    24.9840 c          1 UPD       0.606100
     14 O            4.7130    -1.2330    24.9170 o          1 UPD      -0.574100
     15 N2           6.9430     1.3630    29.1480 nb         1 UPD      -0.739000
     16 C11          5.6470     1.5710    29.4640 ca         1 UPD       0.568300
     17 O2           5.3220     2.2770    30.6000 os         1 UPD      -0.459300
     18 C12          6.3430     2.8050    31.4700 c3         1 UPD       0.159900
     19 C9           4.8740     0.3640    27.5030 ca         1 UPD      -0.047000
     20 H1           7.6510    -0.6490    25.9090 hn         1 UPD       0.150000
     21 H2           5.9870    -4.0000    18.3100 hc         1 UPD       0.060033
     22 H3           5.8140    -2.4710    19.2560 hc         1 UPD       0.060033
     23 H4           7.3810    -2.9190    18.7200 hc         1 UPD       0.060033
     24 H5           8.6430    -1.7760    21.7460 h1         1 UPD       0.055700
     25 H6           7.4530    -1.4800    20.4810 h1         1 UPD       0.055700
     26 H7           6.9390    -0.1580    22.5490 hc         1 UPD       0.062700
     27 H8           5.6360    -1.2790    22.1550 hc         1 UPD       0.062700
     28 H9           3.5690     1.2840    28.9690 ha         1 UPD       0.141000
     29 H10          8.2720     0.5160    27.8010 h4         1 UPD       0.013100
     30 H11          7.4000    -5.1320    22.7220 h1         1 UPD       0.055700
     31 H12          8.6220    -3.8990    23.0490 h1         1 UPD       0.055700
     32 H13          5.6130    -3.6980    23.6550 hc         1 UPD       0.062700
     33 H14          6.9050    -3.8640    24.8430 hc         1 UPD       0.062700
     34 H15          7.8470    -1.7010    24.2110 hc         1 UPD       0.052700
     35 H16          5.8870     3.3330    32.3160 h1         1 UPD       0.045700
     36 H17          6.9710     1.9990    31.8720 h1         1 UPD       0.045700
     37 H18          6.9860     3.5150    30.9340 h1         1 UPD       0.045700
     38 H19          4.0510    -0.0030    26.8960 ha         1 UPD       0.146000
     39 C4           6.6770    -4.0830    20.3940 c          1 UPD       0.610100
@<TRIPOS>BOND
     1     1     5 1   
     2     1    13 1   
     3     1    20 1   
     4     2    21 1   
     5     2    22 1   
     6     2    23 1   
     7     2    39 1   
     8     3     4 1   
     9     3     9 1   
    10     3    24 1   
    11     3    25 1   
    12     4    12 1   
    13     4    26 1   
    14     4    27 1   
    15     5     7 ar  
    16     5    19 ar  
    17     6    16 ar  
    18     6    19 ar  
    19     6    28 1   
    20     7    15 ar  
    21     7    29 1   
    22     8    39 2   
    23     9    10 1   
    24     9    39 1   
    25    10    11 1   
    26    10    30 1   
    27    10    31 1   
    28    11    12 1   
    29    11    32 1   
    30    11    33 1   
    31    12    13 1   
    32    12    34 1   
    33    13    14 2   
    34    15    16 ar  
    35    16    17 1   
    36    17    18 1   
    37    18    35 1   
    38    18    36 1   
    39    18    37 1   
    40    19    38 1   
@<TRIPOS>SUBSTRUCTURE
     1 UPD         1 TEMP              0 ****  ****    0 ROOT
