@<TRIPOS>MOLECULE
UPF
   57    59     1     0     0
SMALL
No Charge or Current Charge


@<TRIPOS>ATOM
      1 N1           1.3850    -0.6400     3.1690 n          1 UPF      -0.308000
      2 C2           1.4750     0.5290     3.9620 c          1 UPF       0.614000
      3 N3           2.6130     0.6630     4.6980 ns         1 UPF      -0.469500
      4 C4           3.6690    -0.1820     4.7760 c          1 UPF       0.599200
      5 C5           3.5210    -1.3740     3.9510 cc         1 UPF      -0.419200
      6 C6           2.4080    -1.5850     3.1720 cd         1 UPF       0.032600
      7 O2           0.6010     1.3750     4.0400 o          1 UPF      -0.486000
      8 O4           4.6370     0.0490     5.4770 o          1 UPF      -0.568000
      9 C1D          0.2290    -0.8500     2.2560 c5         1 UPF       0.351700
     10 C2D         -0.9960    -1.3280     3.0970 c5         1 UPF       0.068300
     11 O7          -0.9490    -2.7100     3.5240 oh         1 UPF      -0.729000
     12 C3D         -2.0920    -1.1070     2.0190 c5         1 UPF       0.104300
     13 C4D         -1.6540     0.2710     1.4060 c5         1 UPF       0.154300
     14 O4D         -0.2060     0.3400     1.5750 os         1 UPF      -0.398000
     15 O3D         -2.0500    -2.1730     1.0650 oh         1 UPF      -0.713000
     16 C5D         -2.3210     1.4930     2.1080 c3         1 UPF       0.232600
     17 O5D         -2.1070     2.7250     1.3930 os         1 UPF      -0.559400
     18 PA          -2.6390     2.9610    -0.1130 p5         1 UPF       1.460800
     19 O1A         -3.8840     2.1690    -0.3390 o          1 UPF      -0.856000
     20 O2A         -2.8640     4.4250    -0.3040 o          1 UPF      -0.856000
     21 O3A         -1.3820     2.3730    -0.8630 os         1 UPF      -0.693800
     22 PB          -1.2440     2.9220    -2.3310 p5         1 UPF       1.473800
     23 O1B         -2.4580     2.7660    -3.1850 o          1 UPF      -0.839500
     24 O2B         -0.6860     4.3060    -2.3780 o          1 UPF      -0.839500
     25 O3B         -0.0900     1.9160    -2.8210 os         1 UPF      -0.593400
     26 C1          -0.4120     0.7410    -3.5800 c6         1 UPF       0.437300
     27 C7          -0.9730    -0.4800    -2.7660 c6         1 UPF       0.132300
     28 C3           0.0730    -1.0340    -1.7500 c6         1 UPF       0.107300
     29 C8           1.4230    -1.3220    -2.4760 c6         1 UPF       0.147300
     30 C9           1.8640    -0.0810    -3.3220 c6         1 UPF       0.171300
     31 C10          3.1710    -0.3480    -4.1400 c3         1 UPF       0.176600
     32 F2          -2.1680    -0.1530    -2.0900 f          1 UPF      -0.264000
     33 O3          -0.3870    -2.2690    -1.1450 oh         1 UPF      -0.700000
     34 O8           1.2380    -2.5060    -3.2730 oh         1 UPF      -0.725000
     35 O5           0.8080     0.3320    -4.2380 os         1 UPF      -0.461000
     36 O6           3.6250     0.8000    -4.8790 oh         1 UPF      -0.670000
     37 HN3          2.6740     1.4950     5.2620 hn         1 UPF       0.344500
     38 H5           4.3430    -2.0800     3.9860 ha         1 UPF       0.203000
     39 H6           2.2470    -2.4510     2.5330 h4         1 UPF       0.194000
     40 H1D          0.5180    -1.6080     1.5170 h2         1 UPF       0.050700
     41 H2D         -1.1660    -0.6590     3.9540 h1         1 UPF       0.089700
     42 HO2         -0.3380    -2.7630     4.2980 ho         1 UPF       0.503000
     43 H3D         -3.0910    -1.0470     2.4740 h1         1 UPF       0.057700
     44 H4D         -1.9010     0.2820     0.3410 h1         1 UPF       0.103700
     45 HO3         -1.8510    -2.9680     1.6210 ho         1 UPF       0.495000
     46 H5'1        -1.9300     1.5780     3.1300 h1         1 UPF       0.020700
     47 H5'2        -3.3980     1.3000     2.1950 h1         1 UPF       0.020700
     48 H1          -1.1470     1.0020    -4.3570 h2         1 UPF       0.095700
     49 H2          -1.2350    -1.2710    -3.4820 h1         1 UPF       0.042700
     50 H3           0.2530    -0.2640    -0.9840 h1         1 UPF       0.092700
     51 H4           2.1920    -1.5110    -1.7120 h1         1 UPF       0.027700
     52 H7           2.0870     0.7470    -2.6320 h1         1 UPF       0.105700
     53 H6'1         2.9900    -1.1820    -4.8310 h1         1 UPF       0.007200
     54 H6'2         3.9540    -0.6690    -3.4390 h1         1 UPF       0.007200
     55 HO3A        -1.0800    -2.0440    -0.4680 ho         1 UPF       0.453000
     56 HO4          0.5790    -3.0160    -2.7370 ho         1 UPF       0.498000
     57 HO6          4.3900     0.5040    -5.4230 ho         1 UPF       0.473000
@<TRIPOS>BOND
     1     1     2 1   
     2     1     6 1   
     3     1     9 1   
     4     2     3 1   
     5     2     7 2   
     6     3     4 1   
     7     3    37 1   
     8     4     5 1   
     9     4     8 2   
    10     5     6 2   
    11     5    38 1   
    12     6    39 1   
    13     9    10 1   
    14     9    14 1   
    15     9    40 1   
    16    10    11 1   
    17    10    12 1   
    18    10    41 1   
    19    11    42 1   
    20    12    13 1   
    21    12    15 1   
    22    12    43 1   
    23    13    14 1   
    24    13    16 1   
    25    13    44 1   
    26    15    45 1   
    27    16    17 1   
    28    16    46 1   
    29    16    47 1   
    30    17    18 1   
    31    18    19 1   
    32    18    20 1   
    33    18    21 1   
    34    21    22 1   
    35    22    23 1   
    36    22    24 1   
    37    22    25 1   
    38    25    26 1   
    39    26    27 1   
    40    26    35 1   
    41    26    48 1   
    42    27    28 1   
    43    27    32 1   
    44    27    49 1   
    45    28    29 1   
    46    28    33 1   
    47    28    50 1   
    48    29    30 1   
    49    29    34 1   
    50    29    51 1   
    51    30    31 1   
    52    30    35 1   
    53    30    52 1   
    54    31    36 1   
    55    31    53 1   
    56    31    54 1   
    57    33    55 1   
    58    34    56 1   
    59    36    57 1   
@<TRIPOS>SUBSTRUCTURE
     1 UPF         1 TEMP              0 ****  ****    0 ROOT
