@<TRIPOS>MOLECULE
UPF
   57    59     1     0     0
SMALL
bcc


@<TRIPOS>ATOM
      1 N1           0.8030    -0.8460     3.9340 n          1 UPF      -0.375000
      2 C2           1.4130     0.3130     3.4850 c          1 UPF       0.823500
      3 N3           2.7750     0.2270     3.3520 ns         1 UPF      -0.603500
      4 C4           3.6010    -0.8530     3.6230 c          1 UPF       0.741700
      5 C5           2.8840    -2.0130     4.0900 cc         1 UPF      -0.369200
      6 C6           1.5490    -1.9580     4.2120 cd         1 UPF       0.082600
      7 O2           0.8100     1.3310     3.2310 o          1 UPF      -0.561500
      8 O4           4.8040    -0.7690     3.4620 o          1 UPF      -0.643500
      9 C1D         -0.6450    -0.9200     4.0740 c5         1 UPF       0.328500
     10 C2D         -1.2840     0.0730     5.0440 c5         1 UPF       0.045100
     11 O7          -1.1680    -0.4150     6.3510 oh         1 UPF      -0.606800
     12 C3D         -2.7200     0.1030     4.5050 c5         1 UPF       0.081100
     13 C4D         -2.4940    -0.0160     3.0020 c5         1 UPF       0.131100
     14 O4D         -1.2660    -0.7350     2.8420 os         1 UPF      -0.351600
     15 O3D         -3.4420    -1.0200     4.9440 oh         1 UPF      -0.590800
     16 C5D         -2.4370     1.3270     2.3030 c3         1 UPF       0.209400
     17 O5D         -2.1010     1.1260     0.9490 os         1 UPF      -0.536200
     18 PA          -2.9490     1.9530    -0.1890 p5         1 UPF       1.460800
     19 O1A         -4.3730     1.4910    -0.1730 o          1 UPF      -0.856000
     20 O2A         -2.6300     3.4130    -0.1080 o          1 UPF      -0.856000
     21 O3A         -2.2430     1.2620    -1.4920 os         1 UPF      -0.693800
     22 PB          -0.9160     1.8180    -2.2920 p5         1 UPF       1.473800
     23 O1B         -1.3410     2.7720    -3.3610 o          1 UPF      -0.839500
     24 O2B          0.1730     2.1430    -1.3280 o          1 UPF      -0.839500
     25 O3B         -0.5790     0.3450    -2.9790 os         1 UPF      -0.570200
     26 C1          -0.2300     0.2420    -4.3200 c6         1 UPF       0.390900
     27 C7          -0.1780    -1.2430    -4.6720 c6         1 UPF       0.113600
     28 C3           0.9420    -1.9440    -3.9260 c6         1 UPF       0.084100
     29 C8           2.2570    -1.2250    -4.2270 c6         1 UPF       0.124100
     30 C9           2.1110     0.2590    -3.9160 c6         1 UPF       0.148100
     31 C10          3.3520     1.0360    -4.3030 c3         1 UPF       0.153400
     32 F2          -1.3980    -1.8340    -4.3530 f          1 UPF      -0.245300
     33 O3           1.0920    -3.2860    -4.3230 oh         1 UPF      -0.637800
     34 O8           2.6210    -1.3700    -5.5800 oh         1 UPF      -0.602800
     35 O5           1.0060     0.8230    -4.6070 os         1 UPF      -0.414600
     36 O6           3.2580     2.3390    -3.7790 oh         1 UPF      -0.547800
     37 HN3          3.2240     1.0730     3.0230 hn         1 UPF       0.344500
     38 H5           3.4200    -2.9170     4.3330 ha         1 UPF       0.153000
     39 H6           0.9890    -2.8180     4.5500 h4         1 UPF       0.144000
     40 H1D         -0.8340    -1.9320     4.4530 h2         1 UPF       0.050700
     41 H2D         -0.8430     1.0670     4.9450 h1         1 UPF       0.089700
     42 HO2         -1.2480     0.3210     6.9650 ho         1 UPF       0.404000
     43 H3D         -3.2300     1.0380     4.7700 h1         1 UPF       0.057700
     44 H4D         -3.2950    -0.6060     2.5450 h1         1 UPF       0.103700
     45 HO3         -3.2700    -1.1300     5.8860 ho         1 UPF       0.396000
     46 H5'1        -1.7030     1.9850     2.7760 h1         1 UPF       0.020700
     47 H5'2        -3.4210     1.7940     2.4270 h1         1 UPF       0.020700
     48 H1          -0.9520     0.7590    -4.9600 h2         1 UPF       0.095700
     49 H2          -0.0370    -1.3470    -5.7510 h1         1 UPF       0.042700
     50 H3           0.7550    -1.8730    -2.8460 h1         1 UPF       0.092700
     51 H4           3.0330    -1.6330    -3.5630 h1         1 UPF       0.027700
     52 H7           1.9700     0.3620    -2.8330 h1         1 UPF       0.105700
     53 H6'1         3.4620     1.0440    -5.3930 h1         1 UPF       0.007200
     54 H6'2         4.2210     0.4990    -3.8980 h1         1 UPF       0.007200
     55 HO3A         0.3090    -3.7810    -4.0640 ho         1 UPF       0.414000
     56 HO4          2.6580    -2.3100    -5.7830 ho         1 UPF       0.399000
     57 HO6          4.0030     2.8440    -4.1150 ho         1 UPF       0.374000
@<TRIPOS>BOND
     1     1     2 1   
     2     1     6 1   
     3     1     9 1   
     4     2     3 1   
     5     2     7 2   
     6     3     4 1   
     7     3    37 1   
     8     4     5 1   
     9     4     8 2   
    10     5     6 2   
    11     5    38 1   
    12     6    39 1   
    13     9    10 1   
    14     9    14 1   
    15     9    40 1   
    16    10    11 1   
    17    10    12 1   
    18    10    41 1   
    19    11    42 1   
    20    12    13 1   
    21    12    15 1   
    22    12    43 1   
    23    13    14 1   
    24    13    16 1   
    25    13    44 1   
    26    15    45 1   
    27    16    17 1   
    28    16    46 1   
    29    16    47 1   
    30    17    18 1   
    31    18    19 1   
    32    18    20 1   
    33    18    21 1   
    34    21    22 1   
    35    22    23 1   
    36    22    24 1   
    37    22    25 1   
    38    25    26 1   
    39    26    27 1   
    40    26    35 1   
    41    26    48 1   
    42    27    28 1   
    43    27    32 1   
    44    27    49 1   
    45    28    29 1   
    46    28    33 1   
    47    28    50 1   
    48    29    30 1   
    49    29    34 1   
    50    29    51 1   
    51    30    31 1   
    52    30    35 1   
    53    30    52 1   
    54    31    36 1   
    55    31    53 1   
    56    31    54 1   
    57    33    55 1   
    58    34    56 1   
    59    36    57 1   
@<TRIPOS>SUBSTRUCTURE
     1 UPF         1 TEMP              0 ****  ****    0 ROOT
