@<TRIPOS>MOLECULE
UPG
   58    60     1     0     0
SMALL
No Charge or Current Charge


@<TRIPOS>ATOM
      1 N1          25.2890     6.7410    43.4170 n          1 UPG      -0.302000
      2 C2          24.0610     6.0780    43.6050 c          1 UPG       0.621000
      3 N3          23.0570     6.8180    44.1500 ns         1 UPG      -0.478500
      4 C4          23.0920     8.1150    44.5440 c          1 UPG       0.593200
      5 C5          24.3860     8.7510    44.3410 cc         1 UPG      -0.414200
      6 C6          25.4540     8.0740    43.7940 cd         1 UPG       0.044600
      7 O2          23.8750     4.9080    43.3130 o          1 UPG      -0.592000
      8 O4          22.1220     8.6750    45.0220 o          1 UPG      -0.587000
      9 C1C         26.4100     5.9840    42.8050 c5         1 UPG       0.334700
     10 C2C         26.5440     6.4310    41.3110 c5         1 UPG       0.140300
     11 O2C         25.6260     5.7910    40.4070 oh         1 UPG      -0.716000
     12 C3C         27.9840     5.9090    41.0510 c5         1 UPG       0.103300
     13 C4C         28.7020     6.3150    42.3920 c5         1 UPG       0.131300
     14 O4C         27.6690     6.3300    43.4190 os         1 UPG      -0.466000
     15 O3C         27.9560     4.4770    40.8390 oh         1 UPG      -0.724000
     16 C5C         29.4330     7.6910    42.3530 c3         1 UPG       0.223600
     17 O5C         28.4820     8.7490    42.1470 os         1 UPG      -0.632400
     18 PA          28.9840    10.2780    42.1950 p5         1 UPG       1.470800
     19 O1A         30.0210    10.4430    43.2560 o          1 UPG      -0.841000
     20 O2A         27.8570    11.2260    42.4360 o          1 UPG      -0.841000
     21 O3A         29.6360    10.4550    40.7720 os         1 UPG      -0.714800
     22 PB          28.7980    10.0050    39.5170 p5         1 UPG       1.471800
     23 O1B         27.3280    10.2380    39.6200 o          1 UPG      -0.849500
     24 O2B         29.1230     8.6120    39.0950 o          1 UPG      -0.849500
     25 O3B         29.4120    11.0610    38.4760 os         1 UPG      -0.589400
     26 C1          30.7310    10.7870    37.9950 c6         1 UPG       0.464300
     27 C7          31.7200    11.9970    38.2000 c6         1 UPG       0.149300
     28 C3          31.2530    13.1960    37.3290 c6         1 UPG       0.129300
     29 C8          31.1410    12.7710    35.8370 c6         1 UPG       0.104300
     30 C9          30.1800    11.5410    35.7260 c6         1 UPG       0.151300
     31 C10         30.0770    10.9900    34.2640 c3         1 UPG       0.171600
     32 O7          31.8580    12.4320    39.5680 oh         1 UPG      -0.657000
     33 O3          32.1630    14.3080    37.4600 oh         1 UPG      -0.685000
     34 O8          30.6910    13.8930    35.0470 oh         1 UPG      -0.728000
     35 O5          30.6480    10.4630    36.5850 os         1 UPG      -0.463000
     36 O6          29.2420     9.8250    34.1490 oh         1 UPG      -0.674000
     37 HN3         22.1800     6.3400    44.2790 hn         1 UPG       0.312500
     38 H5          24.4540     9.7890    44.6490 ha         1 UPG       0.240000
     39 H6          26.4460     8.4930    43.6220 h4         1 UPG       0.284000
     40 H1C         26.2260     4.9060    42.8940 h2         1 UPG       0.093700
     41 H2C         26.4960     7.5260    41.2210 h1         1 UPG       0.125700
     42 HO2C        26.0850     4.9380    40.1990 ho         1 UPG       0.520000
     43 H3C         28.4370     6.4220    40.1900 h1         1 UPG       0.118700
     44 H4C         29.4480     5.5580    42.6680 h1         1 UPG       0.034700
     45 HO3C        28.8850     4.1790    40.6930 ho         1 UPG       0.488000
     46 H5C1        29.9620     7.8230    43.3060 h1         1 UPG       0.037200
     47 H5C2        30.1830     7.6780    41.5520 h1         1 UPG       0.037200
     48 H1          31.1640     9.9260    38.5300 h2         1 UPG       0.097700
     49 H2          32.7060    11.6780    37.8330 h1         1 UPG       0.007700
     50 H3          30.2470    13.4920    37.6690 h1         1 UPG       0.096700
     51 H4          32.1380    12.4570    35.4930 h1         1 UPG       0.025700
     52 H7          29.1700    11.8400    36.0430 h1         1 UPG       0.094700
     53 H6'1        29.6820    11.7850    33.6180 h1         1 UPG      -0.002300
     54 H6'2        31.0890    10.7550    33.9110 h1         1 UPG      -0.002300
     55 HO2         32.1820    13.3600    39.4950 ho         1 UPG       0.487000
     56 HO3         31.9870    14.8650    36.6670 ho         1 UPG       0.441000
     57 HO4         30.9410    13.7160    34.1100 ho         1 UPG       0.486000
     58 HO6         29.3080     9.5190    33.2160 ho         1 UPG       0.476000
@<TRIPOS>BOND
     1     1     2 1   
     2     1     6 1   
     3     1     9 1   
     4     2     3 1   
     5     2     7 2   
     6     3     4 1   
     7     3    37 1   
     8     4     5 1   
     9     4     8 2   
    10     5     6 2   
    11     5    38 1   
    12     6    39 1   
    13     9    10 1   
    14     9    14 1   
    15     9    40 1   
    16    10    11 1   
    17    10    12 1   
    18    10    41 1   
    19    11    42 1   
    20    12    13 1   
    21    12    15 1   
    22    12    43 1   
    23    13    14 1   
    24    13    16 1   
    25    13    44 1   
    26    15    45 1   
    27    16    17 1   
    28    16    46 1   
    29    16    47 1   
    30    17    18 1   
    31    18    19 1   
    32    18    20 1   
    33    18    21 1   
    34    21    22 1   
    35    22    23 1   
    36    22    24 1   
    37    22    25 1   
    38    25    26 1   
    39    26    27 1   
    40    26    35 1   
    41    26    48 1   
    42    27    28 1   
    43    27    32 1   
    44    27    49 1   
    45    28    29 1   
    46    28    33 1   
    47    28    50 1   
    48    29    30 1   
    49    29    34 1   
    50    29    51 1   
    51    30    31 1   
    52    30    35 1   
    53    30    52 1   
    54    31    36 1   
    55    31    53 1   
    56    31    54 1   
    57    32    55 1   
    58    33    56 1   
    59    34    57 1   
    60    36    58 1   
@<TRIPOS>SUBSTRUCTURE
     1 UPG         1 TEMP              0 ****  ****    0 ROOT
