@<TRIPOS>MOLECULE
UPG
   58    60     1     0     0
SMALL
bcc


@<TRIPOS>ATOM
      1 N1          25.2190     6.8320    43.2380 n          1 UPG      -0.369000
      2 C2          24.0120     6.2900    43.6380 c          1 UPG       0.830500
      3 N3          23.2270     7.1340    44.3820 ns         1 UPG      -0.612500
      4 C4          23.4970     8.4380    44.7730 c          1 UPG       0.735700
      5 C5          24.7720     8.9190    44.3040 cc         1 UPG      -0.364200
      6 C6          25.5610     8.1120    43.5770 cd         1 UPG       0.094600
      7 O2          23.6580     5.1630    43.3630 o          1 UPG      -0.667500
      8 O4          22.6970     9.0610    45.4440 o          1 UPG      -0.662500
      9 C1C         26.1600     6.0120    42.4860 c5         1 UPG       0.311500
     10 C2C         26.4600     6.5320    41.0800 c5         1 UPG       0.117100
     11 O2C         25.4580     6.1030    40.2090 oh         1 UPG      -0.593800
     12 C3C         27.8600     5.9580    40.8470 c5         1 UPG       0.080100
     13 C4C         28.4780     6.0590    42.2490 c5         1 UPG       0.108100
     14 O4C         27.3820     5.9760    43.1660 os         1 UPG      -0.419600
     15 O3C         27.7080     4.6200    40.4420 oh         1 UPG      -0.601800
     16 C5C         29.2970     7.3050    42.5120 c3         1 UPG       0.200400
     17 O5C         28.4910     8.4390    42.3060 os         1 UPG      -0.609200
     18 PA          29.0570     9.9790    42.4680 p5         1 UPG       1.470800
     19 O1A         30.1380    10.0200    43.4980 o          1 UPG      -0.841000
     20 O2A         27.8380    10.8360    42.5650 o          1 UPG      -0.841000
     21 O3A         29.8000    10.1900    41.0150 os         1 UPG      -0.714800
     22 PB          29.3040     9.6740    39.5300 p5         1 UPG       1.471800
     23 O1B         27.8160     9.6930    39.4180 o          1 UPG      -0.849500
     24 O2B         30.1170     8.4680    39.1710 o          1 UPG      -0.849500
     25 O3B         29.8270    10.9740    38.6560 os         1 UPG      -0.566200
     26 C1          31.1110    11.0390    38.1150 c6         1 UPG       0.417900
     27 C7          31.5910    12.4870    38.1460 c6         1 UPG       0.126100
     28 C3          30.7570    13.3380    37.2000 c6         1 UPG       0.106100
     29 C8          30.7950    12.7320    35.8020 c6         1 UPG       0.081100
     30 C9          30.3530    11.2650    35.8640 c6         1 UPG       0.128100
     31 C10         30.5190    10.5690    34.5300 c3         1 UPG       0.148400
     32 O7          31.5430    12.9430    39.4710 oh         1 UPG      -0.534800
     33 O3          31.2900    14.6410    37.2220 oh         1 UPG      -0.622800
     34 O8          29.9440    13.5040    34.9830 oh         1 UPG      -0.605800
     35 O5          31.1440    10.5560    36.8050 os         1 UPG      -0.416600
     36 O6          29.9950     9.2660    34.6200 oh         1 UPG      -0.551800
     37 HN3         22.3410     6.7430    44.6790 hn         1 UPG       0.312500
     38 H5          25.0890     9.9230    44.5410 ha         1 UPG       0.190000
     39 H6          26.5240     8.4520    43.2250 h4         1 UPG       0.234000
     40 H1C         25.7150     5.0170    42.4200 h2         1 UPG       0.093700
     41 H2C         26.5410     7.6240    41.0870 h1         1 UPG       0.125700
     42 HO2C        25.5170     6.6150    39.3970 ho         1 UPG       0.421000
     43 H3C         28.4330     6.5400    40.1160 h1         1 UPG       0.118700
     44 H4C         29.1430     5.2050    42.4220 h1         1 UPG       0.034700
     45 HO3C        28.5840     4.2420    40.3130 ho         1 UPG       0.389000
     46 H5C1        29.6830     7.2750    43.5360 h1         1 UPG       0.037200
     47 H5C2        30.1600     7.2920    41.8380 h1         1 UPG       0.037200
     48 H1          31.8120    10.4080    38.6710 h2         1 UPG       0.097700
     49 H2          32.6270    12.4820    37.7700 h1         1 UPG       0.007700
     50 H3          29.7130    13.3410    37.5480 h1         1 UPG       0.096700
     51 H4          31.8330    12.7710    35.4400 h1         1 UPG       0.025700
     52 H7          29.2910    11.2310    36.1460 h1         1 UPG       0.094700
     53 H6'1        29.9970    11.1570    33.7650 h1         1 UPG      -0.002300
     54 H6'2        31.5850    10.5650    34.2590 h1         1 UPG      -0.002300
     55 HO2         31.9020    13.8360    39.4900 ho         1 UPG       0.388000
     56 HO3         30.7140    15.2090    36.7000 ho         1 UPG       0.402000
     57 HO4         30.2760    13.4930    34.0820 ho         1 UPG       0.387000
     58 HO6         30.0670     8.8540    33.7550 ho         1 UPG       0.377000
@<TRIPOS>BOND
     1     1     2 1   
     2     1     6 1   
     3     1     9 1   
     4     2     3 1   
     5     2     7 2   
     6     3     4 1   
     7     3    37 1   
     8     4     5 1   
     9     4     8 2   
    10     5     6 2   
    11     5    38 1   
    12     6    39 1   
    13     9    10 1   
    14     9    14 1   
    15     9    40 1   
    16    10    11 1   
    17    10    12 1   
    18    10    41 1   
    19    11    42 1   
    20    12    13 1   
    21    12    15 1   
    22    12    43 1   
    23    13    14 1   
    24    13    16 1   
    25    13    44 1   
    26    15    45 1   
    27    16    17 1   
    28    16    46 1   
    29    16    47 1   
    30    17    18 1   
    31    18    19 1   
    32    18    20 1   
    33    18    21 1   
    34    21    22 1   
    35    22    23 1   
    36    22    24 1   
    37    22    25 1   
    38    25    26 1   
    39    26    27 1   
    40    26    35 1   
    41    26    48 1   
    42    27    28 1   
    43    27    32 1   
    44    27    49 1   
    45    28    29 1   
    46    28    33 1   
    47    28    50 1   
    48    29    30 1   
    49    29    34 1   
    50    29    51 1   
    51    30    31 1   
    52    30    35 1   
    53    30    52 1   
    54    31    36 1   
    55    31    53 1   
    56    31    54 1   
    57    32    55 1   
    58    33    56 1   
    59    34    57 1   
    60    36    58 1   
@<TRIPOS>SUBSTRUCTURE
     1 UPG         1 TEMP              0 ****  ****    0 ROOT
