@<TRIPOS>MOLECULE
UPH
   73    76     1     0     0
SMALL
No Charge or Current Charge


@<TRIPOS>ATOM
      1 N1         -36.3840   -30.1100   -67.2550 n3         1 UPH      -0.723600
      2 N3         -41.3260   -30.4370   -60.7270 no         1 UPH       0.675200
      3 C4         -38.4010   -29.1350   -68.5730 c3         1 UPH       0.156600
      4 C5         -37.1730   -31.3040   -66.8370 c3         1 UPH       0.178800
      5 C6         -38.0050   -31.1360   -65.5410 c3         1 UPH      -0.115400
      6 C7         -38.8250   -32.3960   -65.1850 c3         1 UPH      -0.072400
      7 C8         -39.6650   -32.2120   -63.9040 c3         1 UPH      -0.080400
      8 C10        -41.3970   -33.2980   -62.2750 c3         1 UPH       0.216800
      9 C13        -41.7730   -28.8000   -62.5510 ca         1 UPH      -0.079000
     10 C15        -42.7010   -26.6340   -65.5790 c5         1 UPH       0.156000
     11 C17        -39.8450   -26.9160   -65.4270 c6         1 UPH       0.123600
     12 C20        -42.6080   -25.1130   -65.2600 c5         1 UPH      -0.075400
     13 C21        -43.0090   -29.4270   -64.5340 ca         1 UPH      -0.067000
     14 C22        -43.1310   -30.7380   -64.0400 ca         1 UPH      -0.179000
     15 C24        -34.2990   -28.7080   -66.8390 c6         1 UPH       0.171300
     16 C1         -35.1220   -27.4190   -67.1430 c6         1 UPH       0.176300
     17 C11        -42.5560   -31.0970   -62.8120 ca         1 UPH       0.359000
     18 C12        -41.9000   -30.1150   -62.0480 ca         1 UPH      -0.207200
     19 C14        -42.3040   -28.4440   -63.8060 ca         1 UPH       0.260000
     20 C16        -41.8580   -27.0380   -66.8450 c6         1 UPH       0.123600
     21 C18        -40.7930   -26.4560   -64.2610 c5         1 UPH       0.156000
     22 C19        -41.2870   -24.9850   -64.4270 c5         1 UPH      -0.075400
     23 C2         -36.2690   -27.7350   -68.1450 c6         1 UPH       0.132300
     24 C23        -35.2620   -29.8120   -66.3130 c6         1 UPH       0.134800
     25 C3         -37.1970   -28.8750   -67.5870 c6         1 UPH       0.172500
     26 C9         -40.5740   -33.4270   -63.5810 c3         1 UPH      -0.107400
     27 N2         -42.5910   -32.4440   -62.4510 nu         1 UPH      -0.933200
     28 N4         -42.1140   -27.1290   -64.3090 nh         1 UPH      -0.757400
     29 O1         -34.3050   -26.3670   -67.6950 oh         1 UPH      -0.648000
     30 O2         -36.9940   -26.5120   -68.4340 oh         1 UPH      -0.737000
     31 O3         -37.9930   -29.5640   -69.8870 oh         1 UPH      -0.656000
     32 O4         -42.0950   -30.8490   -59.8490 o          1 UPH      -0.409500
     33 O5         -40.1730   -30.0510   -60.5000 o          1 UPH      -0.409500
     34 O6         -40.5630   -27.6040   -66.4920 os         1 UPH      -0.448000
     35 O7         -33.2540   -28.4560   -65.8700 oh         1 UPH      -0.706000
     36 H2         -39.0740   -29.8770   -68.1260 h1         1 UPH       0.027200
     37 H3         -38.9870   -28.2110   -68.6550 h1         1 UPH       0.027200
     38 H4         -37.8490   -31.6100   -67.6470 h1         1 UPH       0.056200
     39 H5         -36.4900   -32.1520   -66.6890 h1         1 UPH       0.056200
     40 H6         -37.3400   -30.9000   -64.7020 hc         1 UPH       0.041700
     41 H7         -38.6950   -30.2910   -65.6530 hc         1 UPH       0.041700
     42 H8         -39.4930   -32.6360   -66.0220 hc         1 UPH       0.039200
     43 H9         -38.1480   -33.2500   -65.0570 hc         1 UPH       0.039200
     44 H10        -38.9950   -32.0250   -63.0550 hc         1 UPH       0.041700
     45 H11        -40.2750   -31.3130   -64.0300 hc         1 UPH       0.041700
     46 H12        -41.7230   -34.3050   -61.9760 h1         1 UPH       0.064200
     47 H13        -40.7500   -32.9240   -61.4700 h1         1 UPH       0.064200
     48 H14        -41.2600   -28.0480   -61.9580 ha         1 UPH       0.145000
     49 H15        -43.7500   -26.9300   -65.7230 h1         1 UPH       0.079200
     50 H16        -39.3060   -26.0560   -65.8480 h1         1 UPH       0.053700
     51 H17        -39.0920   -27.6100   -65.0270 h1         1 UPH       0.053700
     52 H19        -42.6020   -24.4920   -66.1620 hc         1 UPH       0.055450
     53 H20        -43.4690   -24.7910   -64.6630 hc         1 UPH       0.055450
     54 H21        -43.4380   -29.1950   -65.5030 ha         1 UPH       0.117000
     55 H22        -43.6380   -31.4870   -64.6400 ha         1 UPH       0.116000
     56 H23        -33.8590   -29.0630   -67.7830 h1         1 UPH       0.058700
     57 H24        -35.5800   -27.0770   -66.2030 h1         1 UPH       0.053700
     58 H25        -42.4090   -27.7890   -67.4280 h1         1 UPH       0.053700
     59 H26        -41.7050   -26.1660   -67.4970 h1         1 UPH       0.053700
     60 H27        -40.2660   -26.5730   -63.3040 h1         1 UPH       0.079200
     61 H28        -40.5430   -24.3460   -64.9170 hc         1 UPH       0.055450
     62 H29        -41.4940   -24.5320   -63.4510 hc         1 UPH       0.055450
     63 H30        -35.8040   -28.1160   -69.0680 h1         1 UPH       0.074700
     64 H31        -35.6610   -29.4890   -65.3400 h1         1 UPH       0.041700
     65 H32        -34.6770   -30.7260   -66.1320 h1         1 UPH       0.041700
     66 H33        -37.6430   -28.4940   -66.6570 h1         1 UPH       0.040700
     67 H34        -41.2480   -33.6250   -64.4230 hc         1 UPH       0.051200
     68 H35        -39.9320   -34.3120   -63.4850 hc         1 UPH       0.051200
     69 H36        -43.3870   -32.9350   -62.8610 hn         1 UPH       0.466000
     70 H37        -34.9570   -25.7710   -68.1310 ho         1 UPH       0.452000
     71 H38        -37.5330   -26.6860   -69.2410 ho         1 UPH       0.510000
     72 H39        -38.8060   -29.8320   -70.3670 ho         1 UPH       0.439000
     73 H41        -32.6050   -29.1920   -65.9520 ho         1 UPH       0.500000
@<TRIPOS>BOND
     1     1     4 1   
     2     1    24 1   
     3     1    25 1   
     4     2    18 1   
     5     2    32 1   
     6     2    33 1   
     7     3    25 1   
     8     3    31 1   
     9     3    36 1   
    10     3    37 1   
    11     4     5 1   
    12     4    38 1   
    13     4    39 1   
    14     5     6 1   
    15     5    40 1   
    16     5    41 1   
    17     6     7 1   
    18     6    42 1   
    19     6    43 1   
    20     7    26 1   
    21     7    44 1   
    22     7    45 1   
    23     8    26 1   
    24     8    27 1   
    25     8    46 1   
    26     8    47 1   
    27     9    18 ar  
    28     9    19 ar  
    29     9    48 1   
    30    10    12 1   
    31    10    20 1   
    32    10    28 1   
    33    10    49 1   
    34    11    21 1   
    35    11    34 1   
    36    11    50 1   
    37    11    51 1   
    38    12    22 1   
    39    12    52 1   
    40    12    53 1   
    41    13    14 ar  
    42    13    19 ar  
    43    13    54 1   
    44    14    17 ar  
    45    14    55 1   
    46    15    16 1   
    47    15    24 1   
    48    15    35 1   
    49    15    56 1   
    50    16    23 1   
    51    16    29 1   
    52    16    57 1   
    53    17    18 ar  
    54    17    27 1   
    55    19    28 1   
    56    20    34 1   
    57    20    58 1   
    58    20    59 1   
    59    21    22 1   
    60    21    28 1   
    61    21    60 1   
    62    22    61 1   
    63    22    62 1   
    64    23    25 1   
    65    23    30 1   
    66    23    63 1   
    67    24    64 1   
    68    24    65 1   
    69    25    66 1   
    70    26    67 1   
    71    26    68 1   
    72    27    69 1   
    73    29    70 1   
    74    30    71 1   
    75    31    72 1   
    76    35    73 1   
@<TRIPOS>SUBSTRUCTURE
     1 UPH         1 TEMP              0 ****  ****    0 ROOT
