@<TRIPOS>MOLECULE
UPH
   73    76     1     0     0
SMALL
abcg2


@<TRIPOS>ATOM
      1 N1         -35.7510   -31.0590   -68.1550 n3         1 UPH      -0.723600
      2 N3         -42.1170   -30.4140   -60.6200 no         1 UPH       0.675200
      3 C4         -37.6780   -30.5460   -69.6620 c3         1 UPH       0.156600
      4 C5         -36.5800   -31.9850   -67.3820 c3         1 UPH       0.178800
      5 C6         -37.4410   -31.3850   -66.2660 c3         1 UPH      -0.115400
      6 C7         -38.1930   -32.4680   -65.4960 c3         1 UPH      -0.072400
      7 C8         -39.1300   -31.9090   -64.4290 c3         1 UPH      -0.080400
      8 C10        -40.8100   -32.4380   -62.5860 c3         1 UPH       0.216800
      9 C13        -42.6610   -28.4340   -61.8840 ca         1 UPH      -0.079000
     10 C15        -43.4040   -25.5880   -64.1930 c5         1 UPH       0.156000
     11 C17        -41.4640   -25.3080   -62.1750 c6         1 UPH       0.123600
     12 C20        -44.1230   -24.3170   -63.7270 c5         1 UPH      -0.075400
     13 C21        -43.2090   -28.5380   -64.2020 ca         1 UPH      -0.067000
     14 C22        -42.8640   -29.8660   -64.2330 ca         1 UPH      -0.179000
     15 C24        -33.6080   -29.8600   -68.2810 c6         1 UPH       0.171300
     16 C1         -34.2520   -28.8060   -69.1540 c6         1 UPH       0.176300
     17 C11        -42.3920   -30.5610   -63.0980 ca         1 UPH       0.359000
     18 C12        -42.3620   -29.8070   -61.9070 ca         1 UPH      -0.207200
     19 C14        -43.0940   -27.7700   -63.0200 ca         1 UPH       0.260000
     20 C16        -41.9010   -25.3380   -64.5220 c6         1 UPH       0.123600
     21 C18        -42.9900   -25.5260   -61.9490 c5         1 UPH       0.156000
     22 C19        -43.8160   -24.2580   -62.2100 c5         1 UPH      -0.075400
     23 C2         -35.4620   -29.3760   -69.8800 c6         1 UPH       0.132300
     24 C23        -34.6650   -30.4850   -67.3740 c6         1 UPH       0.134800
     25 C3         -36.4630   -30.0250   -68.9100 c6         1 UPH       0.172500
     26 C9         -39.8210   -32.9950   -63.6060 c3         1 UPH      -0.107400
     27 N2         -41.9740   -31.8570   -63.2520 nu         1 UPH      -0.933200
     28 N4         -43.4870   -26.4330   -62.9910 nh         1 UPH      -0.757400
     29 O1         -33.2990   -28.3080   -70.0910 oh         1 UPH      -0.648000
     30 O2         -36.0420   -28.2780   -70.5940 oh         1 UPH      -0.737000
     31 O3         -37.2820   -31.5380   -70.6120 oh         1 UPH      -0.656000
     32 O4         -42.4030   -31.6020   -60.4540 o          1 UPH      -0.409500
     33 O5         -41.6880   -29.7060   -59.7040 o          1 UPH      -0.409500
     34 O6         -41.0570   -25.7700   -63.4600 os         1 UPH      -0.448000
     35 O7         -32.5810   -29.2330   -67.5100 oh         1 UPH      -0.706000
     36 H2         -38.4100   -30.9570   -68.9620 h1         1 UPH       0.027200
     37 H3         -38.1490   -29.6970   -70.1650 h1         1 UPH       0.027200
     38 H4         -37.2210   -32.5320   -68.0750 h1         1 UPH       0.056200
     39 H5         -35.9000   -32.7220   -66.9450 h1         1 UPH       0.056200
     40 H6         -36.8140   -30.8170   -65.5720 hc         1 UPH       0.041700
     41 H7         -38.1610   -30.6770   -66.6870 hc         1 UPH       0.041700
     42 H8         -38.7740   -33.0760   -66.1990 hc         1 UPH       0.039200
     43 H9         -37.4700   -33.1460   -65.0280 hc         1 UPH       0.039200
     44 H10        -38.5670   -31.2580   -63.7510 hc         1 UPH       0.041700
     45 H11        -39.8800   -31.2760   -64.9110 hc         1 UPH       0.041700
     46 H12        -41.1210   -33.2180   -61.8880 h1         1 UPH       0.064200
     47 H13        -40.3160   -31.6620   -61.9970 h1         1 UPH       0.064200
     48 H14        -42.5840   -27.9270   -60.9370 ha         1 UPH       0.145000
     49 H15        -43.9050   -26.0440   -65.0430 h1         1 UPH       0.079200
     50 H16        -41.2150   -24.2460   -62.0560 h1         1 UPH       0.053700
     51 H17        -40.8750   -25.8820   -61.4610 h1         1 UPH       0.053700
     52 H19        -43.7720   -23.4400   -64.2680 hc         1 UPH       0.055450
     53 H20        -45.1940   -24.4110   -63.9000 hc         1 UPH       0.055450
     54 H21        -43.5550   -28.0760   -65.1160 ha         1 UPH       0.117000
     55 H22        -42.9160   -30.4050   -65.1710 ha         1 UPH       0.116000
     56 H23        -33.1750   -30.6340   -68.9230 h1         1 UPH       0.058700
     57 H24        -34.5960   -27.9870   -68.5070 h1         1 UPH       0.053700
     58 H25        -41.5910   -25.9140   -65.3930 h1         1 UPH       0.053700
     59 H26        -41.7340   -24.2750   -64.7320 h1         1 UPH       0.053700
     60 H27        -43.1680   -25.9250   -60.9530 h1         1 UPH       0.079200
     61 H28        -43.2640   -23.3640   -61.9220 hc         1 UPH       0.055450
     62 H29        -44.7370   -24.2810   -61.6280 hc         1 UPH       0.055450
     63 H30        -35.1220   -30.1360   -70.5870 h1         1 UPH       0.074700
     64 H31        -35.0090   -29.7100   -66.6690 h1         1 UPH       0.041700
     65 H32        -34.1990   -31.2790   -66.7870 h1         1 UPH       0.041700
     66 H33        -36.8400   -29.2290   -68.2440 h1         1 UPH       0.040700
     67 H34        -40.3450   -33.6930   -64.2700 hc         1 UPH       0.051200
     68 H35        -39.0720   -33.5830   -63.0680 hc         1 UPH       0.051200
     69 H36        -42.0970   -32.1910   -64.1970 hn         1 UPH       0.466000
     70 H37        -33.7920   -27.7510   -70.7100 ho         1 UPH       0.452000
     71 H38        -36.4550   -28.6120   -71.3980 ho         1 UPH       0.510000
     72 H39        -38.0700   -31.8250   -71.0880 ho         1 UPH       0.439000
     73 H41        -32.1030   -29.9210   -67.0300 ho         1 UPH       0.500000
@<TRIPOS>BOND
     1     1     4 1   
     2     1    24 1   
     3     1    25 1   
     4     2    18 1   
     5     2    32 1   
     6     2    33 1   
     7     3    25 1   
     8     3    31 1   
     9     3    36 1   
    10     3    37 1   
    11     4     5 1   
    12     4    38 1   
    13     4    39 1   
    14     5     6 1   
    15     5    40 1   
    16     5    41 1   
    17     6     7 1   
    18     6    42 1   
    19     6    43 1   
    20     7    26 1   
    21     7    44 1   
    22     7    45 1   
    23     8    26 1   
    24     8    27 1   
    25     8    46 1   
    26     8    47 1   
    27     9    18 ar  
    28     9    19 ar  
    29     9    48 1   
    30    10    12 1   
    31    10    20 1   
    32    10    28 1   
    33    10    49 1   
    34    11    21 1   
    35    11    34 1   
    36    11    50 1   
    37    11    51 1   
    38    12    22 1   
    39    12    52 1   
    40    12    53 1   
    41    13    14 ar  
    42    13    19 ar  
    43    13    54 1   
    44    14    17 ar  
    45    14    55 1   
    46    15    16 1   
    47    15    24 1   
    48    15    35 1   
    49    15    56 1   
    50    16    23 1   
    51    16    29 1   
    52    16    57 1   
    53    17    18 ar  
    54    17    27 1   
    55    19    28 1   
    56    20    34 1   
    57    20    58 1   
    58    20    59 1   
    59    21    22 1   
    60    21    28 1   
    61    21    60 1   
    62    22    61 1   
    63    22    62 1   
    64    23    25 1   
    65    23    30 1   
    66    23    63 1   
    67    24    64 1   
    68    24    65 1   
    69    25    66 1   
    70    26    67 1   
    71    26    68 1   
    72    27    69 1   
    73    29    70 1   
    74    30    71 1   
    75    31    72 1   
    76    35    73 1   
@<TRIPOS>SUBSTRUCTURE
     1 UPH         1 TEMP              0 ****  ****    0 ROOT
