@<TRIPOS>MOLECULE
UPI
   90    94     1     0     0
SMALL
abcg2


@<TRIPOS>ATOM
      1 CAQ          8.4790    30.1460    -1.4810 ce         1 UPI      -0.127700
      2 CAR          3.6210    25.5790    -0.1040 ce         1 UPI      -0.226100
      3 CAS          3.8330    30.4140    -0.2800 ce         1 UPI      -0.226100
      4 CAT          8.3000    25.3120    -1.1570 ce         1 UPI      -0.127700
      5 CAU          4.5790    34.2450    -1.5730 c3         1 UPI      -0.197400
      6 CAV          7.7360    21.7540     0.6710 c3         1 UPI      -0.197400
      7 CAW         12.2650    29.5360    -1.2360 c3         1 UPI      -0.194400
      8 CAX          0.5650    26.1990     1.8970 c3         1 UPI      -0.194400
      9 CBK          3.7440    33.5180    -2.6430 c          1 UPI       0.708500
     10 CBL          8.7120    22.6450     1.4590 c          1 UPI       0.708500
     11 CBM         11.7300    30.7110    -0.3940 c          1 UPI       0.717000
     12 CBN         -0.6930    25.3890     2.2770 c          1 UPI       0.717000
     13 CBO          8.0710    33.6540    -2.6390 c          1 UPI       0.731000
     14 CBP          3.8390    22.4690     1.4880 c          1 UPI       0.731000
     15 CBQ          0.1650    30.2380    -1.0180 c          1 UPI       0.734500
     16 CBR         11.9250    25.3880    -0.8850 c          1 UPI       0.734500
     17 CBS          5.6290    32.1430    -0.6250 cc         1 UPI      -0.232800
     18 CBT          6.5510    23.5850    -0.6070 cd         1 UPI      -0.146200
     19 CBU          6.9390    32.0630    -0.9830 cd         1 UPI      -0.058200
     20 CBV          5.2290    23.6700    -0.3080 cc         1 UPI      -0.144800
     21 CBW         10.1550    28.3100    -1.9370 cd         1 UPI      -0.135300
     22 CBX          1.8930    27.4040     0.1410 cd         1 UPI      -0.132200
     23 CBY          1.9560    28.7740     0.1040 cc         1 UPI      -0.050200
     24 CBZ         10.1070    26.9400    -1.8290 cd         1 UPI      -0.053300
     25 CCA          5.1510    30.7680    -0.5670 cc         1 UPI       0.448400
     26 CCB          7.0020    24.9600    -0.7990 cd         1 UPI       0.128100
     27 CCC          7.2290    30.6430    -1.1170 cd         1 UPI       0.128100
     28 CCD          4.9040    25.0880    -0.3350 cc         1 UPI       0.448400
     29 CCE          8.8730    28.8200    -1.5490 cc         1 UPI      -0.067800
     30 CCF          3.2160    26.9030    -0.0940 cd         1 UPI       0.101000
     31 CCG          3.3150    29.1370    -0.1660 cd         1 UPI       0.089500
     32 CCH          8.7890    26.5890    -1.3930 cc         1 UPI      -0.079300
     33 NBG          6.1390    29.8910    -0.8480 nd         1 UPI      -0.664800
     34 NBH          5.9880    25.8370    -0.6230 nd         1 UPI      -0.664800
     35 NBI          4.0240    27.9800    -0.2870 na         1 UPI      -0.567500
     36 NBJ          8.0910    27.7470    -1.2460 na         1 UPI      -0.093500
     37 OAA          4.2150    33.4600    -3.7970 o          1 UPI      -0.735750
     38 OAB          9.8050    22.8840     0.9010 o          1 UPI      -0.735750
     39 OAC         11.6050    30.5370     0.8320 o          1 UPI      -0.772250
     40 OAD         -1.5980    25.2930     1.4240 o          1 UPI      -0.772250
     41 OAE          8.0300    32.7720    -3.5160 o          1 UPI      -0.753750
     42 OAF          2.8050    21.8030     1.6950 o          1 UPI      -0.753750
     43 OAG         -0.8550    30.9310    -0.8440 o          1 UPI      -0.747000
     44 OAH         12.6270    24.3840    -1.1080 o          1 UPI      -0.747000
     45 OAI          2.6480    33.0530    -2.2620 o          1 UPI      -0.735750
     46 OAJ          8.3480    23.0470     2.5830 o          1 UPI      -0.735750
     47 OAK         11.4790    31.7620    -1.0280 o          1 UPI      -0.772250
     48 OAL         -0.7020    24.9150     3.4310 o          1 UPI      -0.772250
     49 OAM          8.2770    34.8720    -2.8060 o          1 UPI      -0.753750
     50 OAN          4.5600    23.0210     2.3380 o          1 UPI      -0.753750
     51 OAO          0.6930    29.9240    -2.0980 o          1 UPI      -0.747000
     52 OAP         11.7750    25.9830     0.1960 o          1 UPI      -0.747000
     53 H1           9.2430    30.8750    -1.7150 ha         1 UPI       0.207000
     54 H2           2.8450    24.8490     0.0890 ha         1 UPI       0.207000
     55 H3           3.1270    31.2210    -0.1410 ha         1 UPI       0.207000
     56 H4           9.0130    24.5070    -1.2700 ha         1 UPI       0.207000
     57 H5           5.5260    34.5910    -1.9900 hc         1 UPI      -0.002550
     58 H6           4.0330    35.1400    -1.2520 hc         1 UPI      -0.002550
     59 H7           6.8220    21.5810     1.2410 hc         1 UPI      -0.002550
     60 H8           8.2050    20.7770     0.5110 hc         1 UPI      -0.002550
     61 H9          12.4750    28.6670    -0.6110 hc         1 UPI       0.020950
     62 H10         13.2170    29.8470    -1.6800 hc         1 UPI       0.020950
     63 H11          0.5660    27.1200     2.4920 hc         1 UPI       0.020950
     64 H12          1.4540    25.6490     2.2220 hc         1 UPI       0.020950
     65 H13          3.8980    33.1370     0.1410 hc         1 UPI      -0.009050
     66 H14          5.3960    33.9860     0.3960 hc         1 UPI      -0.009050
     67 H15          8.2830    22.5100    -1.2700 hc         1 UPI      -0.009050
     68 H16          6.8030    21.5870    -1.2600 hc         1 UPI      -0.009050
     69 H17         10.9940    30.0200    -2.9090 hc         1 UPI       0.020950
     70 H18         11.8940    28.5420    -3.1080 hc         1 UPI       0.020950
     71 H19         -0.2030    27.0940     0.0940 hc         1 UPI       0.020950
     72 H20          0.7280    25.6490    -0.1810 hc         1 UPI       0.020950
     73 H21          8.8870    32.9000    -0.8040 hc         1 UPI       0.010700
     74 H22          7.5840    34.0370    -0.5530 hc         1 UPI       0.010700
     75 H23          3.3690    22.6710    -0.6190 hc         1 UPI       0.010700
     76 H24          4.7110    21.6150    -0.2820 hc         1 UPI       0.010700
     77 H25          1.1790    30.6100     0.8480 hc         1 UPI       0.004950
     78 H26          0.0640    29.2810     0.9220 hc         1 UPI       0.004950
     79 H27         10.7780    25.1190    -2.7050 hc         1 UPI       0.004950
     80 H28         11.9300    26.4190    -2.7730 hc         1 UPI       0.004950
     81 H29          5.0120    27.9320    -0.4880 hn         1 UPI       0.559000
     82 H30          7.1280    27.8000    -0.9470 hn         1 UPI       0.399000
     83 CAY          4.8470    33.3850    -0.3360 c3         1 UPI       0.035800
     84 CAZ          7.3690    22.3370    -0.6990 c3         1 UPI       0.035800
     85 CBA         11.3270    29.1250    -2.3790 c3         1 UPI       0.022900
     86 CBB          0.6930    26.5620     0.4190 c3         1 UPI       0.019800
     87 CBC          7.8930    33.1880    -1.1670 c3         1 UPI      -0.150200
     88 CBD          4.2690    22.5780    -0.0030 c3         1 UPI      -0.150200
     89 CBE          0.8360    29.7310     0.2930 c3         1 UPI      -0.149200
     90 CBF         11.1790    25.9560    -2.1260 c3         1 UPI      -0.146100
@<TRIPOS>BOND
     1     1    27 2   
     2     1    29 1   
     3     1    53 1   
     4     2    28 1   
     5     2    30 2   
     6     2    54 1   
     7     3    25 1   
     8     3    31 2   
     9     3    55 1   
    10     4    26 2   
    11     4    32 1   
    12     4    56 1   
    13     5     9 1   
    14     5    57 1   
    15     5    58 1   
    16     5    83 1   
    17     6    10 1   
    18     6    59 1   
    19     6    60 1   
    20     6    84 1   
    21     7    11 1   
    22     7    61 1   
    23     7    62 1   
    24     7    85 1   
    25     8    12 1   
    26     8    63 1   
    27     8    64 1   
    28     8    86 1   
    29     9    37 1   
    30     9    45 1   
    31    10    38 1   
    32    10    46 1   
    33    11    39 1   
    34    11    47 1   
    35    12    40 1   
    36    12    48 1   
    37    13    41 1   
    38    13    49 1   
    39    13    87 1   
    40    14    42 1   
    41    14    50 1   
    42    14    88 1   
    43    15    43 1   
    44    15    51 1   
    45    15    89 1   
    46    16    44 1   
    47    16    52 1   
    48    16    90 1   
    49    17    19 2   
    50    17    25 1   
    51    17    83 1   
    52    18    20 2   
    53    18    26 1   
    54    18    84 1   
    55    19    27 1   
    56    19    87 1   
    57    20    28 1   
    58    20    88 1   
    59    21    24 1   
    60    21    29 2   
    61    21    85 1   
    62    22    23 2   
    63    22    30 1   
    64    22    86 1   
    65    23    31 1   
    66    23    89 1   
    67    24    32 2   
    68    24    90 1   
    69    25    33 2   
    70    26    34 1   
    71    27    33 1   
    72    28    34 2   
    73    29    36 1   
    74    30    35 1   
    75    31    35 1   
    76    32    36 1   
    77    35    81 1   
    78    36    82 1   
    79    65    83 1   
    80    66    83 1   
    81    67    84 1   
    82    68    84 1   
    83    69    85 1   
    84    70    85 1   
    85    71    86 1   
    86    72    86 1   
    87    73    87 1   
    88    74    87 1   
    89    75    88 1   
    90    76    88 1   
    91    77    89 1   
    92    78    89 1   
    93    79    90 1   
    94    80    90 1   
@<TRIPOS>SUBSTRUCTURE
     1 UPI         1 TEMP              0 ****  ****    0 ROOT
