@<TRIPOS>MOLECULE
UPI
   90    94     1     0     0
SMALL
No Charge or Current Charge


@<TRIPOS>ATOM
      1 CAQ          8.4900    30.2530    -1.4760 ce         1 UPI      -0.127700
      2 CAR          3.7020    25.7240     0.1400 ce         1 UPI      -0.226100
      3 CAS          3.7920    30.4730    -0.5370 ce         1 UPI      -0.226100
      4 CAT          8.3610    25.2990    -0.8880 ce         1 UPI      -0.127700
      5 CAU          4.3390    34.3140    -1.7310 c3         1 UPI      -0.197400
      6 CAV          7.6670    21.3910     0.4010 c3         1 UPI      -0.197400
      7 CAW         12.4570    29.5880    -1.2590 c3         1 UPI      -0.194400
      8 CAX          0.5770    26.3540     2.1610 c3         1 UPI      -0.194400
      9 CBK          3.2100    33.6120    -2.5030 c          1 UPI       0.708500
     10 CBL          8.8110    21.9730     1.2490 c          1 UPI       0.708500
     11 CBM         11.9020    30.6020    -0.2410 c          1 UPI       0.717000
     12 CBN         -0.7670    25.6770     2.4820 c          1 UPI       0.717000
     13 CBO          8.3570    33.6350    -2.7450 c          1 UPI       0.731000
     14 CBP          3.7820    22.3170     1.4190 c          1 UPI       0.731000
     15 CBQ         -0.0740    29.7770    -1.1900 c          1 UPI       0.734500
     16 CBR         12.1230    25.4970    -0.7700 c          1 UPI       0.734500
     17 CBS          5.6300    32.2530    -0.8470 cc         1 UPI      -0.232800
     18 CBT          6.5910    23.5700    -0.5040 cd         1 UPI      -0.146200
     19 CBU          6.9680    32.1940    -1.1430 cd         1 UPI      -0.058200
     20 CBV          5.2590    23.7000    -0.1900 cc         1 UPI      -0.144800
     21 CBW         10.2370    28.3820    -1.8010 cd         1 UPI      -0.135300
     22 CBX          1.8970    27.4420     0.2670 cd         1 UPI      -0.132200
     23 CBY          1.9280    28.8020     0.0470 cc         1 UPI      -0.050200
     24 CBZ         10.2050    26.9590    -1.6450 cd         1 UPI      -0.053300
     25 CCA          5.1670    30.8940    -0.8230 cc         1 UPI       0.448400
     26 CCB          7.0670    24.9280    -0.5700 cd         1 UPI       0.128100
     27 CCC          7.2390    30.7850    -1.2350 cd         1 UPI       0.128100
     28 CCD          5.0120    25.1130    -0.0960 cc         1 UPI       0.448400
     29 CCE          9.0040    28.8840    -1.4560 cc         1 UPI      -0.067800
     30 CCF          3.2350    27.0150     0.0670 cd         1 UPI       0.101000
     31 CCG          3.2070    29.2570    -0.2610 cd         1 UPI       0.089500
     32 CCH          8.9560    26.6060    -1.1810 cc         1 UPI      -0.079300
     33 NBG          6.1220    29.9900    -1.0330 nd         1 UPI      -0.664800
     34 NBH          6.0800    25.8710    -0.3220 nd         1 UPI      -0.664800
     35 NBI          3.9940    28.1130    -0.2440 na         1 UPI      -0.567500
     36 NBJ          8.2430    27.7890    -1.0850 na         1 UPI      -0.093500
     37 OAA          3.5060    32.8750    -3.4320 o          1 UPI      -0.735750
     38 OAB          9.9500    21.6140     0.9890 o          1 UPI      -0.735750
     39 OAC         11.4230    30.1850     0.8030 o          1 UPI      -0.772250
     40 OAD         -1.7330    26.3890     2.7120 o          1 UPI      -0.772250
     41 OAE          9.2650    32.9860    -3.2440 o          1 UPI      -0.753750
     42 OAF          2.9300    23.0250     1.9330 o          1 UPI      -0.753750
     43 OAG         -0.9800    28.9770    -1.3760 o          1 UPI      -0.747000
     44 OAH         11.6780    24.5610    -0.1250 o          1 UPI      -0.747000
     45 OAI          2.0600    33.8380    -2.1570 o          1 UPI      -0.735750
     46 OAJ          8.5340    22.7280     2.1700 o          1 UPI      -0.735750
     47 OAK         11.9970    31.7900    -0.5060 o          1 UPI      -0.772250
     48 OAL         -0.8270    24.4570     2.4620 o          1 UPI      -0.772250
     49 OAM          7.7040    34.4510    -3.3790 o          1 UPI      -0.753750
     50 OAN          4.3660    21.4370     2.0330 o          1 UPI      -0.753750
     51 OAO          0.3020    30.5630    -2.0460 o          1 UPI      -0.747000
     52 OAP         13.1430    26.0940    -0.4570 o          1 UPI      -0.747000
     53 H1           9.2670    30.9950    -1.6280 ha         1 UPI       0.207000
     54 H2           2.9360    25.0010     0.3880 ha         1 UPI       0.207000
     55 H3           3.0840    31.2940    -0.5390 ha         1 UPI       0.207000
     56 H4           9.0490    24.4720    -1.0330 ha         1 UPI       0.207000
     57 H5           5.2240    34.4430    -2.3630 hc         1 UPI      -0.002550
     58 H6           3.9720    35.2550    -1.3030 hc         1 UPI      -0.002550
     59 H7           6.7440    21.3340     0.9840 hc         1 UPI      -0.002550
     60 H8           7.9690    20.4260    -0.0260 hc         1 UPI      -0.002550
     61 H9          12.7400    28.6580    -0.7580 hc         1 UPI       0.020950
     62 H10         13.2750    30.0440    -1.8290 hc         1 UPI       0.020950
     63 H11          0.6210    27.3500     2.6190 hc         1 UPI       0.020950
     64 H12          1.4170    25.7050     2.4340 hc         1 UPI       0.020950
     65 H13          3.9230    33.2080     0.0900 hc         1 UPI      -0.009050
     66 H14          5.3890    34.1280     0.1370 hc         1 UPI      -0.009050
     67 H15          8.2720    22.4880    -1.3680 hc         1 UPI      -0.009050
     68 H16          6.7390    21.6950    -1.5160 hc         1 UPI      -0.009050
     69 H17         11.0330    30.1240    -2.8000 hc         1 UPI       0.020950
     70 H18         11.9040    28.6630    -3.1320 hc         1 UPI       0.020950
     71 H19         -0.2230    27.0440     0.2760 hc         1 UPI       0.020950
     72 H20          0.7550    25.6120     0.1280 hc         1 UPI       0.020950
     73 H21          8.8470    33.0430    -0.7090 hc         1 UPI       0.010700
     74 H22          7.4850    34.2350    -0.8500 hc         1 UPI       0.010700
     75 H23          3.3270    22.9780    -0.6030 hc         1 UPI       0.010700
     76 H24          4.6110    21.7010    -0.4920 hc         1 UPI       0.010700
     77 H25          1.0950    30.7080     0.3880 hc         1 UPI       0.004950
     78 H26          0.0740    29.3130     0.9360 hc         1 UPI       0.004950
     79 H27         10.8220    25.1270    -2.4650 hc         1 UPI       0.004950
     80 H28         11.9980    26.4880    -2.6980 hc         1 UPI       0.004950
     81 H29          4.9920    28.1000    -0.4490 hn         1 UPI       0.559000
     82 H30          7.2750    27.8410    -0.7920 hn         1 UPI       0.399000
     83 CAY          4.7960    33.4760    -0.5150 c3         1 UPI       0.035800
     84 CAZ          7.3460    22.2870    -0.8200 c3         1 UPI       0.035800
     85 CBA         11.4000    29.2070    -2.3250 c3         1 UPI       0.022900
     86 CBB          0.7010    26.5820     0.6370 c3         1 UPI       0.019800
     87 CBC          7.9590    33.3450    -1.2770 c3         1 UPI      -0.150200
     88 CBD          4.1980    22.6120    -0.0460 c3         1 UPI      -0.150200
     89 CBE          0.7140    29.7110     0.1390 c3         1 UPI      -0.149200
     90 CBF         11.3210    25.9850    -1.9990 c3         1 UPI      -0.146100
@<TRIPOS>BOND
     1     1    27 2   
     2     1    29 1   
     3     1    53 1   
     4     2    28 1   
     5     2    30 2   
     6     2    54 1   
     7     3    25 1   
     8     3    31 2   
     9     3    55 1   
    10     4    26 2   
    11     4    32 1   
    12     4    56 1   
    13     5     9 1   
    14     5    57 1   
    15     5    58 1   
    16     5    83 1   
    17     6    10 1   
    18     6    59 1   
    19     6    60 1   
    20     6    84 1   
    21     7    11 1   
    22     7    61 1   
    23     7    62 1   
    24     7    85 1   
    25     8    12 1   
    26     8    63 1   
    27     8    64 1   
    28     8    86 1   
    29     9    37 1   
    30     9    45 1   
    31    10    38 1   
    32    10    46 1   
    33    11    39 1   
    34    11    47 1   
    35    12    40 1   
    36    12    48 1   
    37    13    41 1   
    38    13    49 1   
    39    13    87 1   
    40    14    42 1   
    41    14    50 1   
    42    14    88 1   
    43    15    43 1   
    44    15    51 1   
    45    15    89 1   
    46    16    44 1   
    47    16    52 1   
    48    16    90 1   
    49    17    19 2   
    50    17    25 1   
    51    17    83 1   
    52    18    20 2   
    53    18    26 1   
    54    18    84 1   
    55    19    27 1   
    56    19    87 1   
    57    20    28 1   
    58    20    88 1   
    59    21    24 1   
    60    21    29 2   
    61    21    85 1   
    62    22    23 2   
    63    22    30 1   
    64    22    86 1   
    65    23    31 1   
    66    23    89 1   
    67    24    32 2   
    68    24    90 1   
    69    25    33 2   
    70    26    34 1   
    71    27    33 1   
    72    28    34 2   
    73    29    36 1   
    74    30    35 1   
    75    31    35 1   
    76    32    36 1   
    77    35    81 1   
    78    36    82 1   
    79    65    83 1   
    80    66    83 1   
    81    67    84 1   
    82    68    84 1   
    83    69    85 1   
    84    70    85 1   
    85    71    86 1   
    86    72    86 1   
    87    73    87 1   
    88    74    87 1   
    89    75    88 1   
    90    76    88 1   
    91    77    89 1   
    92    78    89 1   
    93    79    90 1   
    94    80    90 1   
@<TRIPOS>SUBSTRUCTURE
     1 UPI         1 TEMP              0 ****  ****    0 ROOT
