@<TRIPOS>MOLECULE
UPJ
   39    40     1     0     0
SMALL
No Charge or Current Charge


@<TRIPOS>ATOM
      1 N1           5.5870    -2.6630    26.5630 n          1 UPJ      -0.249400
      2 C5           6.3200    -3.0610    19.0650 c3         1 UPJ      -0.177100
      3 C6           7.2080    -2.8840    21.9400 c6         1 UPJ       0.096500
      4 C7           6.2830    -2.3130    23.0420 c6         1 UPJ      -0.090900
      5 C8           4.8470    -1.7520    27.4660 c3         1 UPJ       0.097300
      6 C10          7.0260    -4.6610    26.8720 ca         1 UPJ      -0.113500
      7 C13          9.0310    -3.0560    27.9980 ca         1 UPJ      -0.104500
      8 O1           5.4790    -5.2080    19.6820 o          1 UPJ      -0.604100
      9 N            6.6250    -4.1240    21.3560 n          1 UPJ      -0.411800
     10 C3           6.4270    -5.2000    22.3640 c6         1 UPJ       0.096500
     11 C2           5.4690    -4.7290    23.4850 c6         1 UPJ      -0.090900
     12 C1           5.9660    -3.3950    24.1120 c6         1 UPJ      -0.135700
     13 C            5.0570    -2.8640    25.2570 c          1 UPJ       0.607100
     14 O            3.9030    -2.5390    24.9940 o          1 UPJ      -0.593100
     15 C9           6.7710    -3.2910    27.0920 ca         1 UPJ      -0.050000
     16 C14          7.8060    -2.4860    27.6100 ca         1 UPJ      -0.113500
     17 C12          9.2500    -4.4320    27.8310 ca         1 UPJ      -0.107000
     18 C11          8.2500    -5.2340    27.2590 ca         1 UPJ      -0.104500
     19 H1           5.9150    -3.2730    18.0690 hc         1 UPJ       0.059700
     20 H2           5.8850    -2.1460    19.4800 hc         1 UPJ       0.059700
     21 H3           7.3900    -2.8280    19.0210 hc         1 UPJ       0.059700
     22 H4           8.1860    -3.1280    22.3800 h1         1 UPJ       0.055200
     23 H5           7.3890    -2.1130    21.1810 h1         1 UPJ       0.055200
     24 H6           6.7580    -1.4410    23.5120 hc         1 UPJ       0.060700
     25 H7           5.3500    -1.9560    22.5850 hc         1 UPJ       0.060700
     26 H8           5.3150    -1.7290    28.4580 h1         1 UPJ       0.044700
     27 H9           4.8450    -0.7380    27.0470 h1         1 UPJ       0.044700
     28 H10          3.8120    -2.0990    27.5800 h1         1 UPJ       0.044700
     29 H11          6.2630    -5.2940    26.4260 ha         1 UPJ       0.123500
     30 H12          9.8150    -2.4270    28.4160 ha         1 UPJ       0.118500
     31 H13          6.0290    -6.1120    21.8990 h1         1 UPJ       0.055200
     32 H14          7.4010    -5.4610    22.8020 h1         1 UPJ       0.055200
     33 H15          4.4640    -4.5880    23.0640 hc         1 UPJ       0.060700
     34 H16          5.3800    -5.5110    24.2510 hc         1 UPJ       0.060700
     35 H17          6.9400    -3.6180    24.5580 hc         1 UPJ       0.063700
     36 H18          7.6650    -1.4120    27.7130 ha         1 UPJ       0.123500
     37 H19         10.2000    -4.8740    28.1280 ha         1 UPJ       0.117000
     38 H20          8.4240    -6.2970    27.1090 ha         1 UPJ       0.118500
     39 C4           6.0930    -4.2140    20.0470 c          1 UPJ       0.608100
@<TRIPOS>BOND
     1     1     5 1   
     2     1    13 1   
     3     1    15 1   
     4     2    19 1   
     5     2    20 1   
     6     2    21 1   
     7     2    39 1   
     8     3     4 1   
     9     3     9 1   
    10     3    22 1   
    11     3    23 1   
    12     4    12 1   
    13     4    24 1   
    14     4    25 1   
    15     5    26 1   
    16     5    27 1   
    17     5    28 1   
    18     6    15 ar  
    19     6    18 ar  
    20     6    29 1   
    21     7    16 ar  
    22     7    17 ar  
    23     7    30 1   
    24     8    39 2   
    25     9    10 1   
    26     9    39 1   
    27    10    11 1   
    28    10    31 1   
    29    10    32 1   
    30    11    12 1   
    31    11    33 1   
    32    11    34 1   
    33    12    13 1   
    34    12    35 1   
    35    13    14 2   
    36    15    16 ar  
    37    16    36 1   
    38    17    18 ar  
    39    17    37 1   
    40    18    38 1   
@<TRIPOS>SUBSTRUCTURE
     1 UPJ         1 TEMP              0 ****  ****    0 ROOT
