@<TRIPOS>MOLECULE
UPJ
   39    40     1     0     0
SMALL
bcc


@<TRIPOS>ATOM
      1 N1           5.4990    -2.9090    26.4780 n          1 UPJ      -0.409000
      2 C5           6.8100    -2.6630    19.5000 c3         1 UPJ      -0.177100
      3 C6           7.3450    -3.3210    22.2560 c6         1 UPJ       0.096500
      4 C7           6.5320    -2.6990    23.3840 c6         1 UPJ      -0.090900
      5 C8           4.6980    -2.2090    27.4730 c3         1 UPJ       0.097300
      6 C10          7.1570    -4.5280    27.2400 ca         1 UPJ      -0.131500
      7 C13          9.1260    -2.5710    27.1510 ca         1 UPJ      -0.122500
      8 O1           5.3740    -4.5630    19.5080 o          1 UPJ      -0.604100
      9 N            6.5040    -4.1540    21.4170 n          1 UPJ      -0.478800
     10 C3           5.8640    -5.2340    22.1470 c6         1 UPJ       0.096500
     11 C2           4.9940    -4.6820    23.2700 c6         1 UPJ      -0.090900
     12 C1           5.8190    -3.7890    24.1960 c6         1 UPJ      -0.135700
     13 C            4.9500    -3.1460    25.2620 c          1 UPJ       0.674100
     14 O            3.7980    -2.8120    25.0240 o          1 UPJ      -0.593100
     15 C9           6.8390    -3.2400    26.8220 ca         1 UPJ       0.042600
     16 C14          7.8240    -2.2600    26.7850 ca         1 UPJ      -0.131500
     17 C12          9.4480    -3.8600    27.5540 ca         1 UPJ      -0.125000
     18 C11          8.4620    -4.8370    27.5980 ca         1 UPJ      -0.122500
     19 H1           6.4780    -2.5910    18.4680 hc         1 UPJ       0.059700
     20 H2           6.5330    -1.7410    20.0130 hc         1 UPJ       0.059700
     21 H3           7.8990    -2.7260    19.5070 hc         1 UPJ       0.059700
     22 H4           8.1430    -3.9430    22.6740 h1         1 UPJ       0.055200
     23 H5           7.8280    -2.5460    21.6690 h1         1 UPJ       0.055200
     24 H6           7.1980    -2.1150    24.0230 hc         1 UPJ       0.060700
     25 H7           5.7980    -2.0090    22.9590 hc         1 UPJ       0.060700
     26 H8           5.2850    -2.0990    28.3800 h1         1 UPJ       0.044700
     27 H9           4.4080    -1.2160    27.1280 h1         1 UPJ       0.044700
     28 H10          3.7940    -2.7670    27.7180 h1         1 UPJ       0.044700
     29 H11          6.3840    -5.2850    27.2760 ha         1 UPJ       0.141500
     30 H12          9.8900    -1.8050    27.1170 ha         1 UPJ       0.136500
     31 H13          5.2730    -5.8340    21.4610 h1         1 UPJ       0.055200
     32 H14          6.6430    -5.8810    22.5640 h1         1 UPJ       0.055200
     33 H15          4.1620    -4.1180    22.8430 hc         1 UPJ       0.060700
     34 H16          4.5680    -5.5180    23.8300 hc         1 UPJ       0.060700
     35 H17          6.5900    -4.4080    24.6620 hc         1 UPJ       0.063700
     36 H18          7.5690    -1.2560    26.4710 ha         1 UPJ       0.141500
     37 H19         10.4640    -4.1030    27.8340 ha         1 UPJ       0.135000
     38 H20          8.7080    -5.8420    27.9150 ha         1 UPJ       0.136500
     39 C4           6.1650    -3.8720    20.1400 c          1 UPJ       0.675100
@<TRIPOS>BOND
     1     1     5 1   
     2     1    13 1   
     3     1    15 1   
     4     2    19 1   
     5     2    20 1   
     6     2    21 1   
     7     2    39 1   
     8     3     4 1   
     9     3     9 1   
    10     3    22 1   
    11     3    23 1   
    12     4    12 1   
    13     4    24 1   
    14     4    25 1   
    15     5    26 1   
    16     5    27 1   
    17     5    28 1   
    18     6    15 ar  
    19     6    18 ar  
    20     6    29 1   
    21     7    16 ar  
    22     7    17 ar  
    23     7    30 1   
    24     8    39 2   
    25     9    10 1   
    26     9    39 1   
    27    10    11 1   
    28    10    31 1   
    29    10    32 1   
    30    11    12 1   
    31    11    33 1   
    32    11    34 1   
    33    12    13 1   
    34    12    35 1   
    35    13    14 2   
    36    15    16 ar  
    37    16    36 1   
    38    17    18 ar  
    39    17    37 1   
    40    18    38 1   
@<TRIPOS>SUBSTRUCTURE
     1 UPJ         1 TEMP              0 ****  ****    0 ROOT
