@<TRIPOS>MOLECULE
UPK
   32    34     1     0     0
SMALL
abcg2


@<TRIPOS>ATOM
      1 C02        -21.2560   -21.1160    -3.7550 c          1 UPK       0.600500
      2 C03        -22.1780   -21.4770    -2.6920 ca         1 UPK      -0.323600
      3 C04        -23.3810   -22.1520    -2.9750 ca         1 UPK       0.234100
      4 C06        -24.2430   -22.4770    -1.9290 ca         1 UPK      -0.186000
      5 C07        -21.8720   -21.1400    -1.3710 ca         1 UPK      -0.008000
      6 C08        -22.7230   -21.4520    -0.3360 ca         1 UPK      -0.165000
      7 C09        -23.9090   -22.1260    -0.6340 ca         1 UPK       0.076800
      8 C11        -24.5470   -23.0550     1.5970 cc         1 UPK       0.472000
      9 C12        -23.2740   -23.6920     1.9460 ca         1 UPK      -0.129500
     10 C13        -22.5400   -24.4300     1.0180 ca         1 UPK      -0.082000
     11 C14        -21.3540   -25.0430     1.3920 ca         1 UPK      -0.116500
     12 C15        -20.8900   -24.9340     2.6970 ca         1 UPK      -0.099000
     13 C16        -21.6240   -24.2120     3.6290 ca         1 UPK      -0.116500
     14 C17        -22.8090   -23.5960     3.2580 ca         1 UPK      -0.082000
     15 C19        -26.5860   -22.4080     1.6670 cd         1 UPK       0.238900
     16 C20        -26.1210   -22.0280     0.4450 cc         1 UPK      -0.215000
     17 N10        -24.8110   -22.4390     0.4060 na         1 UPK      -0.083300
     18 N18        -25.6050   -23.0460     2.3680 nd         1 UPK      -0.661000
     19 O05        -23.7270   -22.5060    -4.2070 oh         1 UPK      -0.529100
     20 O1         -21.4420   -21.3670    -4.9340 o          1 UPK      -0.557100
     21 H1         -20.3460   -20.5820    -3.4350 h4         1 UPK       0.006200
     22 H3         -25.1600   -23.0150    -2.1360 ha         1 UPK       0.149000
     23 H4         -20.9480   -20.6110    -1.1660 ha         1 UPK       0.122000
     24 H5         -22.4910   -21.1710     0.6810 ha         1 UPK       0.142000
     25 H6         -22.8980   -24.5500     0.0030 ha         1 UPK       0.124000
     26 H7         -20.7960   -25.6160     0.6630 ha         1 UPK       0.115500
     27 H8         -19.9630   -25.4120     2.9860 ha         1 UPK       0.114000
     28 H9         -21.2710   -24.1240     4.6480 ha         1 UPK       0.115500
     29 H10        -23.3740   -23.0280     3.9850 ha         1 UPK       0.124000
     30 H11        -27.5730   -22.2570     2.0740 h4         1 UPK       0.042100
     31 H12        -26.5750   -21.4910    -0.3710 h4         1 UPK       0.163000
     32 H13        -23.0260   -22.2170    -4.8270 ho         1 UPK       0.515000
@<TRIPOS>BOND
     1     1     2 1   
     2     1    20 2   
     3     1    21 1   
     4     2     3 ar  
     5     2     5 ar  
     6     3     4 ar  
     7     3    19 1   
     8     4     7 ar  
     9     4    22 1   
    10     5     6 ar  
    11     5    23 1   
    12     6     7 ar  
    13     6    24 1   
    14     7    17 1   
    15     8     9 1   
    16     8    17 1   
    17     8    18 2   
    18     9    10 ar  
    19     9    14 ar  
    20    10    11 ar  
    21    10    25 1   
    22    11    12 ar  
    23    11    26 1   
    24    12    13 ar  
    25    12    27 1   
    26    13    14 ar  
    27    13    28 1   
    28    14    29 1   
    29    15    16 2   
    30    15    18 1   
    31    15    30 1   
    32    16    17 1   
    33    16    31 1   
    34    19    32 1   
@<TRIPOS>SUBSTRUCTURE
     1 UPK         1 TEMP              0 ****  ****    0 ROOT
