@<TRIPOS>MOLECULE
UPK
   32    34     1     0     0
SMALL
No Charge or Current Charge


@<TRIPOS>ATOM
      1 C02        -21.2270   -21.1240    -3.8150 c          1 UPK       0.600500
      2 C03        -22.2000   -21.4890    -2.7300 ca         1 UPK      -0.323600
      3 C04        -23.3990   -22.1780    -3.0010 ca         1 UPK       0.234100
      4 C06        -24.2810   -22.5020    -1.9620 ca         1 UPK      -0.186000
      5 C07        -21.9020   -21.1270    -1.4010 ca         1 UPK      -0.008000
      6 C08        -22.7900   -21.4530    -0.3620 ca         1 UPK      -0.165000
      7 C09        -23.9800   -22.1520    -0.6350 ca         1 UPK       0.076800
      8 C11        -24.5330   -23.0320     1.6100 cc         1 UPK       0.472000
      9 C12        -23.2510   -23.6640     1.9730 ca         1 UPK      -0.129500
     10 C13        -22.4620   -24.3430     1.0150 ca         1 UPK      -0.082000
     11 C14        -21.2640   -24.9760     1.3920 ca         1 UPK      -0.116500
     12 C15        -20.8490   -24.9610     2.7320 ca         1 UPK      -0.099000
     13 C16        -21.6420   -24.3240     3.7000 ca         1 UPK      -0.116500
     14 C17        -22.8390   -23.6900     3.3250 ca         1 UPK      -0.082000
     15 C19        -26.5830   -22.3170     1.6980 cd         1 UPK       0.238900
     16 C20        -26.1610   -22.0120     0.4280 cc         1 UPK      -0.215000
     17 N10        -24.8700   -22.4780     0.3880 na         1 UPK      -0.083300
     18 N18        -25.5790   -22.9380     2.4250 nd         1 UPK      -0.661000
     19 O05        -23.7210   -22.5400    -4.2710 oh         1 UPK      -0.529100
     20 O1         -21.4190   -21.4040    -4.9960 o          1 UPK      -0.557100
     21 H1         -20.3100   -20.5800    -3.4960 h4         1 UPK       0.006200
     22 H3         -25.2000   -23.0350    -2.1890 ha         1 UPK       0.149000
     23 H4         -20.9840   -20.5900    -1.1670 ha         1 UPK       0.122000
     24 H5         -22.5470   -21.1590     0.6570 ha         1 UPK       0.142000
     25 H6         -22.7740   -24.3970    -0.0240 ha         1 UPK       0.124000
     26 H7         -20.6620   -25.4860     0.6430 ha         1 UPK       0.115500
     27 H8         -19.9240   -25.4530     3.0230 ha         1 UPK       0.114000
     28 H9         -21.3300   -24.3230     4.7420 ha         1 UPK       0.115500
     29 H10        -23.4430   -23.2050     4.0900 ha         1 UPK       0.124000
     30 H11        -27.5520   -22.1100     2.1370 h4         1 UPK       0.042100
     31 H12        -26.6520   -21.5050    -0.3920 h4         1 UPK       0.163000
     32 H13        -22.9790   -22.2230    -4.8430 ho         1 UPK       0.515000
@<TRIPOS>BOND
     1     1     2 1   
     2     1    20 2   
     3     1    21 1   
     4     2     3 ar  
     5     2     5 ar  
     6     3     4 ar  
     7     3    19 1   
     8     4     7 ar  
     9     4    22 1   
    10     5     6 ar  
    11     5    23 1   
    12     6     7 ar  
    13     6    24 1   
    14     7    17 1   
    15     8     9 1   
    16     8    17 1   
    17     8    18 2   
    18     9    10 ar  
    19     9    14 ar  
    20    10    11 ar  
    21    10    25 1   
    22    11    12 ar  
    23    11    26 1   
    24    12    13 ar  
    25    12    27 1   
    26    13    14 ar  
    27    13    28 1   
    28    14    29 1   
    29    15    16 2   
    30    15    18 1   
    31    15    30 1   
    32    16    17 1   
    33    16    31 1   
    34    19    32 1   
@<TRIPOS>SUBSTRUCTURE
     1 UPK         1 TEMP              0 ****  ****    0 ROOT
