@<TRIPOS>MOLECULE
UPL
  104   103     1     0     0
SMALL
abcg2


@<TRIPOS>ATOM
      1 C1           3.1060    -6.2150    -3.7120 c3         1 UPL      -0.088100
      2 C2           1.7410    -5.7020    -3.2730 c3         1 UPL      -0.074400
      3 C3           0.9280    -6.7470    -2.5190 c3         1 UPL      -0.076400
      4 C4          -0.4420    -6.2430    -2.0830 c3         1 UPL      -0.075400
      5 C5          -1.2680    -7.2950    -1.3550 c3         1 UPL      -0.075400
      6 C6          -2.6260    -6.7860    -0.8890 c3         1 UPL      -0.073400
      7 C7          -3.4580    -7.8590    -0.1990 c3         1 UPL      -0.076400
      8 C8          -4.8410    -7.3830     0.2220 c3         1 UPL      -0.074400
      9 C9          -5.6630    -8.4730     0.8970 c3         1 UPL      -0.079400
     10 C10         -7.0700    -8.0180     1.2720 c3         1 UPL      -0.073400
     11 C11         -7.8960    -9.0810     1.9950 c3         1 UPL      -0.071400
     12 C12         -8.1480   -10.3640     1.1950 c3         1 UPL      -0.059700
     13 C13         -8.7260   -11.4770     2.0750 c3         1 UPL      -0.072400
     14 C14         -7.7890   -11.9770     3.1690 c3         1 UPL      -0.075400
     15 C15         -8.3650   -13.1330     3.9780 c3         1 UPL      -0.074400
     16 C16         -7.4660   -13.5480     5.1370 c3         1 UPL      -0.074400
     17 C17         -8.0730   -14.6260     6.0260 c3         1 UPL      -0.074400
     18 C18         -7.2020   -14.9720     7.2280 c3         1 UPL      -0.074400
     19 C19         -7.8630   -15.9530     8.1880 c3         1 UPL      -0.074400
     20 C20         -7.0100   -16.2700     9.4110 c3         1 UPL      -0.074400
     21 C21         -7.7100   -17.1830    10.4100 c3         1 UPL      -0.074400
     22 C22         -6.8700   -17.4860    11.6440 c3         1 UPL      -0.074400
     23 C23         -7.5940   -18.3580    12.6620 c3         1 UPL      -0.076400
     24 C24         -6.7670   -18.6490    13.9090 c3         1 UPL      -0.075400
     25 C25         -7.5090   -19.5120    14.9190 c3         1 UPL      -0.088100
     26 C26         -9.0600   -10.0930    -0.0090 c3         1 UPL      -0.072400
     27 C27         -8.9830   -11.1280    -1.1320 c3         1 UPL      -0.070400
     28 C28         -7.6010   -11.2860    -1.7670 c3         1 UPL      -0.073400
     29 C29         -7.0370   -10.0170    -2.3960 c3         1 UPL      -0.078400
     30 C30         -5.6390   -10.2110    -2.9720 c3         1 UPL      -0.074400
     31 C31         -5.0450    -8.9380    -3.5610 c3         1 UPL      -0.076400
     32 C32         -3.6390    -9.1300    -4.1160 c3         1 UPL      -0.075400
     33 C33         -3.0290    -7.8520    -4.6790 c3         1 UPL      -0.076400
     34 C34         -1.6150    -8.0560    -5.2030 c3         1 UPL      -0.089100
     35 H11          3.6950    -6.5530    -2.8570 hc         1 UPL       0.031367
     36 H12          3.6810    -5.4420    -4.2240 hc         1 UPL       0.031367
     37 H13          3.0070    -7.0600    -4.3960 hc         1 UPL       0.031367
     38 H21          1.8650    -4.8170    -2.6430 hc         1 UPL       0.036200
     39 H22          1.1760    -5.3720    -4.1510 hc         1 UPL       0.036200
     40 H31          0.8040    -7.6330    -3.1520 hc         1 UPL       0.037200
     41 H32          1.4900    -7.0810    -1.6390 hc         1 UPL       0.037200
     42 H41         -0.9950    -5.8970    -2.9640 hc         1 UPL       0.037200
     43 H42         -0.3190    -5.3660    -1.4380 hc         1 UPL       0.037200
     44 H51         -1.4180    -8.1550    -2.0170 hc         1 UPL       0.037700
     45 H52         -0.7060    -7.6710    -0.4930 hc         1 UPL       0.037700
     46 H61         -3.1810    -6.3960    -1.7500 hc         1 UPL       0.036700
     47 H62         -2.4880    -5.9380    -0.2090 hc         1 UPL       0.036700
     48 H71         -2.9170    -8.2330     0.6770 hc         1 UPL       0.038700
     49 H72         -3.5680    -8.7160    -0.8750 hc         1 UPL       0.038700
     50 H81         -4.7480    -6.5230     0.8950 hc         1 UPL       0.036200
     51 H82         -5.3820    -7.0210    -0.6610 hc         1 UPL       0.036200
     52 H91         -5.7160    -9.3350     0.2220 hc         1 UPL       0.040200
     53 H92         -5.1420    -8.8250     1.7940 hc         1 UPL       0.040200
     54 H101        -7.5880    -7.6760     0.3690 hc         1 UPL       0.036700
     55 H102        -6.9950    -7.1380     1.9190 hc         1 UPL       0.036700
     56 H111        -7.3800    -9.3290     2.9260 hc         1 UPL       0.038700
     57 H112        -8.8610    -8.6520     2.2910 hc         1 UPL       0.038700
     58 H121        -7.1790   -10.7180     0.8250 hc         1 UPL       0.050700
     59 H131        -9.6610   -11.1240     2.5300 hc         1 UPL       0.037200
     60 H132        -9.0050   -12.3280     1.4430 hc         1 UPL       0.037200
     61 H141        -7.5530   -11.1610     3.8590 hc         1 UPL       0.037200
     62 H142        -6.8360   -12.2810     2.7220 hc         1 UPL       0.037200
     63 H151        -8.5430   -13.9920     3.3220 hc         1 UPL       0.037200
     64 H152        -9.3460   -12.8430     4.3710 hc         1 UPL       0.037200
     65 H161        -6.5010   -13.8910     4.7490 hc         1 UPL       0.036700
     66 H162        -7.2480   -12.6650     5.7490 hc         1 UPL       0.036700
     67 H171        -9.0530   -14.2860     6.3810 hc         1 UPL       0.037200
     68 H172        -8.2620   -15.5300     5.4380 hc         1 UPL       0.037200
     69 H181        -6.9570   -14.0510     7.7700 hc         1 UPL       0.037200
     70 H182        -6.2450   -15.3820     6.8850 hc         1 UPL       0.037200
     71 H191        -8.1020   -16.8820     7.6590 hc         1 UPL       0.037200
     72 H192        -8.8220   -15.5370     8.5170 hc         1 UPL       0.037200
     73 H201        -6.0680   -16.7320     9.0930 hc         1 UPL       0.037200
     74 H202        -6.7340   -15.3340     9.9100 hc         1 UPL       0.037200
     75 H211        -7.9840   -18.1220     9.9160 hc         1 UPL       0.037200
     76 H212        -8.6530   -16.7180    10.7180 hc         1 UPL       0.037200
     77 H221        -6.5740   -16.5440    12.1200 hc         1 UPL       0.036700
     78 H222        -5.9390   -17.9770    11.3420 hc         1 UPL       0.036700
     79 H231        -7.8830   -19.3050    12.1910 hc         1 UPL       0.036700
     80 H232        -8.5300   -17.8700    12.9550 hc         1 UPL       0.036700
     81 H241        -6.4750   -17.7030    14.3760 hc         1 UPL       0.036700
     82 H242        -5.8340   -19.1430    13.6180 hc         1 UPL       0.036700
     83 H251        -7.7740   -20.4800    14.4890 hc         1 UPL       0.031367
     84 H252        -8.4360   -19.0310    15.2380 hc         1 UPL       0.031367
     85 H253        -6.9090   -19.6980    15.8110 hc         1 UPL       0.031367
     86 H261       -10.0940   -10.0270     0.3480 hc         1 UPL       0.038700
     87 H262        -8.8360    -9.1080    -0.4250 hc         1 UPL       0.038700
     88 H271        -9.7030   -10.8520    -1.9100 hc         1 UPL       0.037200
     89 H272        -9.3100   -12.1040    -0.7600 hc         1 UPL       0.037200
     90 H281        -6.8920   -11.6590    -1.0200 hc         1 UPL       0.036200
     91 H282        -7.6570   -12.0670    -2.5320 hc         1 UPL       0.036200
     92 H291        -7.7130    -9.6640    -3.1840 hc         1 UPL       0.039700
     93 H292        -6.9980    -9.2140    -1.6530 hc         1 UPL       0.039700
     94 H301        -5.6640   -10.9930    -3.7390 hc         1 UPL       0.036200
     95 H302        -4.9750   -10.5830    -2.1830 hc         1 UPL       0.036200
     96 H311        -5.0200    -8.1620    -2.7870 hc         1 UPL       0.038200
     97 H312        -5.7000    -8.5570    -4.3530 hc         1 UPL       0.038200
     98 H321        -3.6550    -9.9000    -4.8970 hc         1 UPL       0.036200
     99 H322        -2.9880    -9.5190    -3.3240 hc         1 UPL       0.036200
    100 H331        -3.0190    -7.0860    -3.8970 hc         1 UPL       0.037700
    101 H332        -3.6680    -7.4630    -5.4770 hc         1 UPL       0.037700
    102 H341        -1.5970    -8.7590    -6.0380 hc         1 UPL       0.031700
    103 H342        -0.9640    -8.4560    -4.4230 hc         1 UPL       0.031700
    104 H343        -1.1720    -7.1200    -5.5460 hc         1 UPL       0.031700
@<TRIPOS>BOND
     1     1     2 1   
     2     1    35 1   
     3     1    36 1   
     4     1    37 1   
     5     2     3 1   
     6     2    38 1   
     7     2    39 1   
     8     3     4 1   
     9     3    40 1   
    10     3    41 1   
    11     4     5 1   
    12     4    42 1   
    13     4    43 1   
    14     5     6 1   
    15     5    44 1   
    16     5    45 1   
    17     6     7 1   
    18     6    46 1   
    19     6    47 1   
    20     7     8 1   
    21     7    48 1   
    22     7    49 1   
    23     8     9 1   
    24     8    50 1   
    25     8    51 1   
    26     9    10 1   
    27     9    52 1   
    28     9    53 1   
    29    10    11 1   
    30    10    54 1   
    31    10    55 1   
    32    11    12 1   
    33    11    56 1   
    34    11    57 1   
    35    12    13 1   
    36    12    26 1   
    37    12    58 1   
    38    13    14 1   
    39    13    59 1   
    40    13    60 1   
    41    14    15 1   
    42    14    61 1   
    43    14    62 1   
    44    15    16 1   
    45    15    63 1   
    46    15    64 1   
    47    16    17 1   
    48    16    65 1   
    49    16    66 1   
    50    17    18 1   
    51    17    67 1   
    52    17    68 1   
    53    18    19 1   
    54    18    69 1   
    55    18    70 1   
    56    19    20 1   
    57    19    71 1   
    58    19    72 1   
    59    20    21 1   
    60    20    73 1   
    61    20    74 1   
    62    21    22 1   
    63    21    75 1   
    64    21    76 1   
    65    22    23 1   
    66    22    77 1   
    67    22    78 1   
    68    23    24 1   
    69    23    79 1   
    70    23    80 1   
    71    24    25 1   
    72    24    81 1   
    73    24    82 1   
    74    25    83 1   
    75    25    84 1   
    76    25    85 1   
    77    26    27 1   
    78    26    86 1   
    79    26    87 1   
    80    27    28 1   
    81    27    88 1   
    82    27    89 1   
    83    28    29 1   
    84    28    90 1   
    85    28    91 1   
    86    29    30 1   
    87    29    92 1   
    88    29    93 1   
    89    30    31 1   
    90    30    94 1   
    91    30    95 1   
    92    31    32 1   
    93    31    96 1   
    94    31    97 1   
    95    32    33 1   
    96    32    98 1   
    97    32    99 1   
    98    33    34 1   
    99    33   100 1   
   100    33   101 1   
   101    34   102 1   
   102    34   103 1   
   103    34   104 1   
@<TRIPOS>SUBSTRUCTURE
     1 UPL         1 TEMP              0 ****  ****    0 ROOT
