@<TRIPOS>MOLECULE
UPL
  104   103     1     0     0
SMALL
No Charge or Current Charge


@<TRIPOS>ATOM
      1 C1           3.0910    -5.8810    -4.0640 c3         1 UPL      -0.088100
      2 C2           1.6480    -5.4530    -3.7360 c3         1 UPL      -0.074400
      3 C3           0.9340    -6.4240    -2.7710 c3         1 UPL      -0.076400
      4 C4          -0.5140    -5.9980    -2.4470 c3         1 UPL      -0.075400
      5 C5          -1.2490    -6.9980    -1.5290 c3         1 UPL      -0.075400
      6 C6          -2.6870    -6.5560    -1.1810 c3         1 UPL      -0.073400
      7 C7          -3.4380    -7.5800    -0.3030 c3         1 UPL      -0.076400
      8 C8          -4.8740    -7.1340     0.0500 c3         1 UPL      -0.074400
      9 C9          -5.6420    -8.1860     0.8790 c3         1 UPL      -0.079400
     10 C10         -7.0910    -7.7550     1.2140 c3         1 UPL      -0.073400
     11 C11         -7.9140    -8.8060     2.0110 c3         1 UPL      -0.071400
     12 C12         -8.1200   -10.1970     1.3270 c3         1 UPL      -0.059700
     13 C13         -8.7700   -11.2380     2.2890 c3         1 UPL      -0.072400
     14 C14         -7.9190   -11.6210     3.5260 c3         1 UPL      -0.075400
     15 C15         -8.5420   -12.7690     4.3500 c3         1 UPL      -0.074400
     16 C16         -7.6990   -13.1500     5.5870 c3         1 UPL      -0.074400
     17 C17         -8.3210   -14.2990     6.4110 c3         1 UPL      -0.074400
     18 C18         -7.4780   -14.6810     7.6470 c3         1 UPL      -0.074400
     19 C19         -8.1000   -15.8290     8.4720 c3         1 UPL      -0.074400
     20 C20         -7.2570   -16.2110     9.7080 c3         1 UPL      -0.074400
     21 C21         -7.8790   -17.3600    10.5320 c3         1 UPL      -0.074400
     22 C22         -7.0360   -17.7420    11.7680 c3         1 UPL      -0.074400
     23 C23         -7.6580   -18.8900    12.5930 c3         1 UPL      -0.076400
     24 C24         -6.8140   -19.2730    13.8280 c3         1 UPL      -0.075400
     25 C25         -7.4350   -20.4190    14.6510 c3         1 UPL      -0.088100
     26 C26         -8.9390   -10.0870    -0.0000 c3         1 UPL      -0.072400
     27 C27         -8.7850   -11.2690    -0.9990 c3         1 UPL      -0.070400
     28 C28         -7.3590   -11.4790    -1.5760 c3         1 UPL      -0.073400
     29 C29         -6.8060   -10.2790    -2.3830 c3         1 UPL      -0.078400
     30 C30         -5.3640   -10.5000    -2.8870 c3         1 UPL      -0.074400
     31 C31         -4.8120    -9.2940    -3.6780 c3         1 UPL      -0.076400
     32 C32         -3.3540    -9.4960    -4.1450 c3         1 UPL      -0.075400
     33 C33         -2.8010    -8.2920    -4.9390 c3         1 UPL      -0.076400
     34 C34         -1.3420    -8.4870    -5.3910 c3         1 UPL      -0.089100
     35 H11          3.6990    -5.9270    -3.1520 hc         1 UPL       0.031367
     36 H12          3.5560    -5.1630    -4.7500 hc         1 UPL       0.031367
     37 H13          3.1050    -6.8690    -4.5400 hc         1 UPL       0.031367
     38 H21          1.6640    -4.4490    -3.2960 hc         1 UPL       0.036200
     39 H22          1.0770    -5.3840    -4.6700 hc         1 UPL       0.036200
     40 H31          0.9270    -7.4280    -3.2130 hc         1 UPL       0.037200
     41 H32          1.5070    -6.4920    -1.8380 hc         1 UPL       0.037200
     42 H41         -1.0760    -5.8890    -3.3830 hc         1 UPL       0.037200
     43 H42         -0.4990    -5.0110    -1.9680 hc         1 UPL       0.037200
     44 H51         -1.2810    -7.9790    -2.0190 hc         1 UPL       0.037700
     45 H52         -0.6770    -7.1240    -0.6010 hc         1 UPL       0.037700
     46 H61         -3.2510    -6.3960    -2.1080 hc         1 UPL       0.036700
     47 H62         -2.6500    -5.5920    -0.6590 hc         1 UPL       0.036700
     48 H71         -2.8740    -7.7460     0.6230 hc         1 UPL       0.038700
     49 H72         -3.4780    -8.5420    -0.8300 hc         1 UPL       0.038700
     50 H81         -4.8330    -6.1900     0.6090 hc         1 UPL       0.036200
     51 H82         -5.4260    -6.9360    -0.8770 hc         1 UPL       0.036200
     52 H91         -5.6510    -9.1230     0.3120 hc         1 UPL       0.040200
     53 H92         -5.0990    -8.3820     1.8120 hc         1 UPL       0.040200
     54 H101        -7.6140    -7.4790     0.2920 hc         1 UPL       0.036700
     55 H102        -7.0460    -6.8370     1.8130 hc         1 UPL       0.036700
     56 H111        -7.4050    -8.9410     2.9720 hc         1 UPL       0.038700
     57 H112        -8.8960    -8.3780     2.2440 hc         1 UPL       0.038700
     58 H121        -7.1260   -10.5850     1.0880 hc         1 UPL       0.050700
     59 H131        -9.7430   -10.8600     2.6260 hc         1 UPL       0.037200
     60 H132        -8.9750   -12.1600     1.7330 hc         1 UPL       0.037200
     61 H141        -7.8000   -10.7510     4.1810 hc         1 UPL       0.037200
     62 H142        -6.9160   -11.9190     3.1960 hc         1 UPL       0.037200
     63 H151        -8.6600   -13.6510     3.7090 hc         1 UPL       0.037200
     64 H152        -9.5470   -12.4730     4.6770 hc         1 UPL       0.037200
     65 H161        -6.6940   -13.4450     5.2600 hc         1 UPL       0.036700
     66 H162        -7.5820   -12.2690     6.2290 hc         1 UPL       0.036700
     67 H171        -9.3270   -14.0040     6.7380 hc         1 UPL       0.037200
     68 H172        -8.4390   -15.1800     5.7690 hc         1 UPL       0.037200
     69 H181        -7.3610   -13.7990     8.2900 hc         1 UPL       0.037200
     70 H182        -6.4730   -14.9750     7.3210 hc         1 UPL       0.037200
     71 H191        -8.2180   -16.7110     7.8290 hc         1 UPL       0.037200
     72 H192        -9.1050   -15.5340     8.7990 hc         1 UPL       0.037200
     73 H201        -6.2520   -16.5060     9.3810 hc         1 UPL       0.037200
     74 H202        -7.1390   -15.3290    10.3500 hc         1 UPL       0.037200
     75 H211        -7.9970   -18.2410     9.8900 hc         1 UPL       0.037200
     76 H212        -8.8840   -17.0650    10.8590 hc         1 UPL       0.037200
     77 H221        -6.9180   -16.8600    12.4110 hc         1 UPL       0.036700
     78 H222        -6.0310   -18.0370    11.4410 hc         1 UPL       0.036700
     79 H231        -7.7760   -19.7720    11.9500 hc         1 UPL       0.036700
     80 H232        -8.6630   -18.5960    12.9200 hc         1 UPL       0.036700
     81 H241        -6.6960   -18.3940    14.4740 hc         1 UPL       0.036700
     82 H242        -5.8090   -19.5710    13.5050 hc         1 UPL       0.036700
     83 H251        -7.5340   -21.3250    14.0410 hc         1 UPL       0.031367
     84 H252        -8.4290   -20.1380    15.0200 hc         1 UPL       0.031367
     85 H253        -6.8030   -20.6540    15.5160 hc         1 UPL       0.031367
     86 H261       -10.0010    -9.9850     0.2540 hc         1 UPL       0.038700
     87 H262        -8.6910    -9.1670    -0.5350 hc         1 UPL       0.038700
     88 H271        -9.4730   -11.1010    -1.8360 hc         1 UPL       0.037200
     89 H272        -9.1140   -12.1990    -0.5240 hc         1 UPL       0.037200
     90 H281        -6.6630   -11.7280    -0.7670 hc         1 UPL       0.036200
     91 H282        -7.3820   -12.3580    -2.2330 hc         1 UPL       0.036200
     92 H291        -7.4650   -10.0870    -3.2390 hc         1 UPL       0.039700
     93 H292        -6.8170    -9.3750    -1.7640 hc         1 UPL       0.039700
     94 H301        -5.3350   -11.3940    -3.5220 hc         1 UPL       0.036200
     95 H302        -4.7110   -10.6940    -2.0270 hc         1 UPL       0.036200
     96 H311        -4.8670    -8.3950    -3.0520 hc         1 UPL       0.038200
     97 H312        -5.4500    -9.1140    -4.5520 hc         1 UPL       0.038200
     98 H321        -3.2970   -10.3960    -4.7700 hc         1 UPL       0.036200
     99 H322        -2.7180    -9.6730    -3.2700 hc         1 UPL       0.036200
    100 H331        -2.8650    -7.3890    -4.3210 hc         1 UPL       0.037700
    101 H332        -3.4280    -8.1180    -5.8220 hc         1 UPL       0.037700
    102 H341        -1.2590    -9.3390    -6.0770 hc         1 UPL       0.031700
    103 H342        -0.6910    -8.6750    -4.5290 hc         1 UPL       0.031700
    104 H343        -0.9770    -7.5910    -5.9080 hc         1 UPL       0.031700
@<TRIPOS>BOND
     1     1     2 1   
     2     1    35 1   
     3     1    36 1   
     4     1    37 1   
     5     2     3 1   
     6     2    38 1   
     7     2    39 1   
     8     3     4 1   
     9     3    40 1   
    10     3    41 1   
    11     4     5 1   
    12     4    42 1   
    13     4    43 1   
    14     5     6 1   
    15     5    44 1   
    16     5    45 1   
    17     6     7 1   
    18     6    46 1   
    19     6    47 1   
    20     7     8 1   
    21     7    48 1   
    22     7    49 1   
    23     8     9 1   
    24     8    50 1   
    25     8    51 1   
    26     9    10 1   
    27     9    52 1   
    28     9    53 1   
    29    10    11 1   
    30    10    54 1   
    31    10    55 1   
    32    11    12 1   
    33    11    56 1   
    34    11    57 1   
    35    12    13 1   
    36    12    26 1   
    37    12    58 1   
    38    13    14 1   
    39    13    59 1   
    40    13    60 1   
    41    14    15 1   
    42    14    61 1   
    43    14    62 1   
    44    15    16 1   
    45    15    63 1   
    46    15    64 1   
    47    16    17 1   
    48    16    65 1   
    49    16    66 1   
    50    17    18 1   
    51    17    67 1   
    52    17    68 1   
    53    18    19 1   
    54    18    69 1   
    55    18    70 1   
    56    19    20 1   
    57    19    71 1   
    58    19    72 1   
    59    20    21 1   
    60    20    73 1   
    61    20    74 1   
    62    21    22 1   
    63    21    75 1   
    64    21    76 1   
    65    22    23 1   
    66    22    77 1   
    67    22    78 1   
    68    23    24 1   
    69    23    79 1   
    70    23    80 1   
    71    24    25 1   
    72    24    81 1   
    73    24    82 1   
    74    25    83 1   
    75    25    84 1   
    76    25    85 1   
    77    26    27 1   
    78    26    86 1   
    79    26    87 1   
    80    27    28 1   
    81    27    88 1   
    82    27    89 1   
    83    28    29 1   
    84    28    90 1   
    85    28    91 1   
    86    29    30 1   
    87    29    92 1   
    88    29    93 1   
    89    30    31 1   
    90    30    94 1   
    91    30    95 1   
    92    31    32 1   
    93    31    96 1   
    94    31    97 1   
    95    32    33 1   
    96    32    98 1   
    97    32    99 1   
    98    33    34 1   
    99    33   100 1   
   100    33   101 1   
   101    34   102 1   
   102    34   103 1   
   103    34   104 1   
@<TRIPOS>SUBSTRUCTURE
     1 UPL         1 TEMP              0 ****  ****    0 ROOT
