@<TRIPOS>MOLECULE
UPM
   73    75     1     0     0
SMALL
abcg2


@<TRIPOS>ATOM
      1 N1           6.2120    -1.1520    -0.4510 n          1 UPM      -0.307000
      2 C2           7.0040    -1.5960    -1.4910 c          1 UPM       0.629000
      3 N3           6.9320    -2.9450    -1.7240 ns         1 UPM      -0.473500
      4 C4           6.1720    -3.8910    -1.0550 c          1 UPM       0.598200
      5 C5           5.3690    -3.3350     0.0060 cc         1 UPM      -0.404200
      6 C6           5.4220    -2.0170     0.2520 cd         1 UPM       0.033600
      7 O2           7.7110    -0.8660    -2.1550 o          1 UPM      -0.566000
      8 O4           6.2170    -5.0630    -1.3780 o          1 UPM      -0.565000
      9 PA           1.3410     3.1960    -0.1200 p5         1 UPM       1.456800
     10 O1A          1.0570     4.2120     0.9410 o          1 UPM      -0.852000
     11 O2A          1.7120     3.6250    -1.5050 o          1 UPM      -0.852000
     12 O3A          0.1480     2.0680    -0.1730 os         1 UPM      -0.683800
     13 PB          -1.1850     2.2140    -1.1150 p5         1 UPM       1.453800
     14 O1B         -1.6600     3.6300    -1.1480 o          1 UPM      -0.839500
     15 O2B         -1.0080     1.4390    -2.3800 o          1 UPM      -0.839500
     16 C1           6.1910     0.2670    -0.1150 c5         1 UPM       0.331700
     17 C9           6.7810     0.5740     1.2640 c5         1 UPM       0.063300
     18 O8           8.1630     0.7390     1.1590 oh         1 UPM      -0.705000
     19 C3           6.0010     1.8330     1.6450 c5         1 UPM       0.103300
     20 O3           6.4990     2.9530     0.9610 oh         1 UPM      -0.683000
     21 C10          4.6260     1.4660     1.1140 c5         1 UPM       0.163300
     22 O9           4.8670     0.7140    -0.0830 os         1 UPM      -0.392000
     23 C11          3.7150     2.6330     0.8190 c3         1 UPM       0.234600
     24 O5           2.4530     2.1200     0.4490 os         1 UPM      -0.563400
     25 C18         -7.1480    -1.7560    -0.9340 c3         1 UPM       0.024300
     26 C19         -6.8680    -1.8900    -2.4510 c          1 UPM       0.693000
     27 O18         -5.6860    -1.8650    -2.8360 o          1 UPM      -0.725000
     28 C20         -7.7150    -3.0540    -0.3800 c3         1 UPM      -0.058100
     29 C1D         -3.4900     1.2820    -0.3110 c6         1 UPM       0.443300
     30 O1D         -2.1310     1.3300    -0.0780 os         1 UPM      -0.541400
     31 C2D         -3.9930    -0.1600    -0.1960 c6         1 UPM       0.076700
     32 N2D         -3.5390    -0.7790     1.0210 ns         1 UPM      -0.454900
     33 C7D         -2.5600    -1.6950     1.0780 c          1 UPM       0.619100
     34 O7D         -1.9990    -2.1750     0.1080 o          1 UPM      -0.569100
     35 C8D         -2.2020    -2.0970     2.5010 c3         1 UPM       0.058600
     36 C3D         -5.5170    -0.1510    -0.3210 c6         1 UPM       0.178300
     37 O3D         -5.9940    -1.4540    -0.1790 os         1 UPM      -0.431000
     38 C4D         -6.1640     0.8220     0.6660 c6         1 UPM       0.096300
     39 O4D         -6.0210     0.3060     1.9700 oh         1 UPM      -0.703000
     40 C5D         -5.4960     2.1910     0.4930 c6         1 UPM       0.150300
     41 O5D         -4.0990     2.0950     0.6570 os         1 UPM      -0.451000
     42 C6D         -6.0250     3.2170     1.4720 c3         1 UPM       0.168600
     43 O6D         -5.5400     4.4880     1.1120 oh         1 UPM      -0.673000
     44 O1          -7.8880    -2.0340    -3.1560 o          1 UPM      -0.725000
     45 OXT         -1.2830    -3.1490     2.4580 oh         1 UPM      -0.621000
     46 HN3          7.5090    -3.2800    -2.4860 hn         1 UPM       0.325500
     47 H5           4.7260    -3.9780     0.5870 ha         1 UPM       0.222000
     48 H6           4.8170    -1.5780     1.0320 h4         1 UPM       0.225000
     49 H1           6.7610     0.7800    -0.8910 h2         1 UPM       0.118700
     50 H2           6.5250    -0.2260     1.9720 h1         1 UPM       0.039700
     51 HO'2         8.5560     0.6280     2.0310 ho         1 UPM       0.495000
     52 H3           5.9750     1.9930     2.7300 h1         1 UPM       0.041700
     53 HO'3         7.4600     2.9450     1.0390 ho         1 UPM       0.493000
     54 H4           4.1330     0.8200     1.8530 h1         1 UPM       0.057700
     55 H5'1         4.1450     3.2520     0.0250 h1         1 UPM       0.030700
     56 H5'2         3.6430     3.2500     1.7220 h1         1 UPM       0.030700
     57 H18         -7.9080    -0.9700    -0.8030 h1         1 UPM      -0.004300
     58 H201        -7.9660    -2.9540     0.6770 hc         1 UPM       0.015367
     59 H202        -8.6200    -3.3300    -0.9170 hc         1 UPM       0.015367
     60 H203        -6.9980    -3.8720    -0.4830 hc         1 UPM       0.015367
     61 H1D         -3.7570     1.6540    -1.3170 h2         1 UPM       0.027700
     62 H2D         -3.5960    -0.7310    -1.0360 h1         1 UPM       0.135700
     63 HND2        -3.9520    -0.4580     1.8840 hn         1 UPM       0.308500
     64 H8D1        -1.8000    -1.2090     3.0110 h1         1 UPM       0.020200
     65 H8D2        -3.1240    -2.3670     3.0330 h1         1 UPM       0.020200
     66 H3D         -5.7310     0.2440    -1.3230 h1         1 UPM       0.072700
     67 H4D         -7.2270     0.9360     0.4060 h1         1 UPM       0.011700
     68 HOD4        -6.5920     0.7940     2.5710 ho         1 UPM       0.465000
     69 H5D         -5.7360     2.5380    -0.5260 h1         1 UPM       0.049700
     70 H6D1        -7.1220     3.1790     1.4410 h1         1 UPM      -0.002800
     71 H6D2        -5.7200     2.9460     2.4900 h1         1 UPM      -0.002800
     72 HOD6        -5.8360     5.1170     1.7750 ho         1 UPM       0.469000
     73 HXT         -1.0670    -3.3850     3.3650 ho         1 UPM       0.404000
@<TRIPOS>BOND
     1     1     2 1   
     2     1     6 1   
     3     1    16 1   
     4     2     3 1   
     5     2     7 2   
     6     3     4 1   
     7     3    46 1   
     8     4     5 1   
     9     4     8 2   
    10     5     6 2   
    11     5    47 1   
    12     6    48 1   
    13     9    10 1   
    14     9    11 1   
    15     9    12 1   
    16     9    24 1   
    17    12    13 1   
    18    13    14 1   
    19    13    15 1   
    20    13    30 1   
    21    16    17 1   
    22    16    22 1   
    23    16    49 1   
    24    17    18 1   
    25    17    19 1   
    26    17    50 1   
    27    18    51 1   
    28    19    20 1   
    29    19    21 1   
    30    19    52 1   
    31    20    53 1   
    32    21    22 1   
    33    21    23 1   
    34    21    54 1   
    35    23    24 1   
    36    23    55 1   
    37    23    56 1   
    38    25    26 1   
    39    25    28 1   
    40    25    37 1   
    41    25    57 1   
    42    26    27 1   
    43    26    44 1   
    44    28    58 1   
    45    28    59 1   
    46    28    60 1   
    47    29    30 1   
    48    29    31 1   
    49    29    41 1   
    50    29    61 1   
    51    31    32 1   
    52    31    36 1   
    53    31    62 1   
    54    32    33 1   
    55    32    63 1   
    56    33    34 2   
    57    33    35 1   
    58    35    45 1   
    59    35    64 1   
    60    35    65 1   
    61    36    37 1   
    62    36    38 1   
    63    36    66 1   
    64    38    39 1   
    65    38    40 1   
    66    38    67 1   
    67    39    68 1   
    68    40    41 1   
    69    40    42 1   
    70    40    69 1   
    71    42    43 1   
    72    42    70 1   
    73    42    71 1   
    74    43    72 1   
    75    45    73 1   
@<TRIPOS>SUBSTRUCTURE
     1 UPM         1 TEMP              0 ****  ****    0 ROOT
