@<TRIPOS>MOLECULE
UPM
   73    75     1     0     0
SMALL
No Charge or Current Charge


@<TRIPOS>ATOM
      1 N1           4.6770    -1.8000    -0.2670 n          1 UPM      -0.307000
      2 C2           5.7510    -2.6880    -0.0730 c          1 UPM       0.629000
      3 N3           5.6070    -3.9350    -0.5960 ns         1 UPM      -0.473500
      4 C4           4.5510    -4.4370    -1.2820 c          1 UPM       0.598200
      5 C5           3.4620    -3.4830    -1.4530 cc         1 UPM      -0.404200
      6 C6           3.5300    -2.2000    -0.9590 cd         1 UPM       0.033600
      7 O2           6.7580    -2.3860     0.5470 o          1 UPM      -0.566000
      8 O4           4.5340    -5.5790    -1.7050 o          1 UPM      -0.565000
      9 PA           0.8910     3.4300    -1.8620 p5         1 UPM       1.456800
     10 O1A          1.5310     4.7240    -1.4820 o          1 UPM      -0.852000
     11 O2A          0.7570     3.2680    -3.3400 o          1 UPM      -0.852000
     12 O3A         -0.4260     3.1130    -1.0540 os         1 UPM      -0.683800
     13 PB          -1.6750     3.8870    -1.6220 p5         1 UPM       1.453800
     14 O1B         -1.4490     5.3440    -1.8520 o          1 UPM      -0.839500
     15 O2B         -2.2960     3.2130    -2.7990 o          1 UPM      -0.839500
     16 C1           4.8290    -0.4150     0.2600 c5         1 UPM       0.331700
     17 C9           4.3170    -0.4360     1.7520 c5         1 UPM       0.063300
     18 O8           5.3640    -0.5580     2.7390 oh         1 UPM      -0.705000
     19 C3           3.6070     0.9420     1.8520 c5         1 UPM       0.103300
     20 O3           4.5660     1.9830     2.0760 oh         1 UPM      -0.683000
     21 C10          2.9460     0.9740     0.4420 c5         1 UPM       0.163300
     22 O9           4.0040     0.5400    -0.4500 os         1 UPM      -0.392000
     23 C11          2.3600     2.3430     0.0100 c3         1 UPM       0.234600
     24 O5           1.7610     2.2060    -1.2860 os         1 UPM      -0.563400
     25 C18         -4.4090    -2.3270    -0.3660 c3         1 UPM       0.024300
     26 C19         -5.0020    -2.4760    -1.8170 c          1 UPM       0.693000
     27 O18         -4.5320    -1.8190    -2.7380 o          1 UPM      -0.725000
     28 C20         -3.6000    -3.5810     0.0260 c3         1 UPM      -0.058100
     29 C1D         -3.5440     2.6260    -0.3170 c6         1 UPM       0.443300
     30 O1D         -2.6200     3.7130    -0.3350 os         1 UPM      -0.541400
     31 C2D         -2.8880     1.2030    -0.2860 c6         1 UPM       0.076700
     32 N2D         -1.9830     1.0490     0.8810 ns         1 UPM      -0.454900
     33 C7D         -0.8660     0.2440     0.9430 c          1 UPM       0.619100
     34 O7D         -0.4480    -0.3720    -0.0310 o          1 UPM      -0.569100
     35 C8D         -0.1960     0.1980     2.3520 c3         1 UPM       0.058600
     36 C3D         -4.0510     0.1500    -0.2790 c6         1 UPM       0.178300
     37 O3D         -3.5080    -1.1960    -0.1900 os         1 UPM      -0.431000
     38 C4D         -5.0840     0.4200     0.8750 c6         1 UPM       0.096300
     39 O4D         -4.5210     0.0380     2.1470 oh         1 UPM      -0.703000
     40 C5D         -5.5320     1.9170     0.8310 c6         1 UPM       0.150300
     41 O5D         -4.3790     2.7920     0.8430 os         1 UPM      -0.451000
     42 C6D         -6.4870     2.3070     2.0090 c3         1 UPM       0.168600
     43 O6D         -6.9550     3.6640     1.9310 oh         1 UPM      -0.673000
     44 O1          -5.9740    -3.2060    -1.9620 o          1 UPM      -0.725000
     45 OXT          0.7070    -0.9150     2.5480 oh         1 UPM      -0.621000
     46 HN3          6.3800    -4.5640    -0.4500 hn         1 UPM       0.325500
     47 H5           2.5980    -3.8470    -1.9980 ha         1 UPM       0.222000
     48 H6           2.7480    -1.4520    -1.0670 h4         1 UPM       0.225000
     49 H1           5.8850    -0.1220     0.1850 h2         1 UPM       0.118700
     50 H2           3.5790    -1.2400     1.8900 h1         1 UPM       0.039700
     51 HO'2         5.8850    -1.3680     2.5190 ho         1 UPM       0.495000
     52 H3           2.8520     0.9450     2.6500 h1         1 UPM       0.041700
     53 HO'3         5.2740     1.5350     2.6010 ho         1 UPM       0.493000
     54 H4           2.1370     0.2340     0.3990 h1         1 UPM       0.057700
     55 H5'1         3.1650     3.0890    -0.0110 h1         1 UPM       0.030700
     56 H5'2         1.6150     2.6580     0.7530 h1         1 UPM       0.030700
     57 H18         -5.2520    -2.2490     0.3330 h1         1 UPM      -0.004300
     58 H201        -3.2010    -3.4840     1.0430 hc         1 UPM       0.015367
     59 H202        -4.2350    -4.4750    -0.0050 hc         1 UPM       0.015367
     60 H203        -2.7610    -3.7330    -0.6640 hc         1 UPM       0.015367
     61 H1D         -4.1830     2.7000    -1.2100 h2         1 UPM       0.027700
     62 H2D         -2.3080     1.0560    -1.2080 h1         1 UPM       0.135700
     63 HND2        -2.2520     1.5160     1.7390 hn         1 UPM       0.308500
     64 H8D1         0.3320     1.1490     2.4990 h1         1 UPM       0.020200
     65 H8D2        -1.0010     0.1560     3.0970 h1         1 UPM       0.020200
     66 H3D         -4.5860     0.2490    -1.2350 h1         1 UPM       0.072700
     67 H4D         -5.9770    -0.1910     0.6840 h1         1 UPM       0.011700
     68 HOD4        -3.9840    -0.7640     1.9560 ho         1 UPM       0.465000
     69 H5D         -6.0870     2.0860    -0.1040 h1         1 UPM       0.049700
     70 H6D1        -7.3440     1.6210     1.9980 h1         1 UPM      -0.002800
     71 H6D2        -5.9580     2.1560     2.9590 h1         1 UPM      -0.002800
     72 HOD6        -7.4620     3.8360     2.7570 ho         1 UPM       0.469000
     73 HXT          0.9370    -0.9430     3.5020 ho         1 UPM       0.404000
@<TRIPOS>BOND
     1     1     2 1   
     2     1     6 1   
     3     1    16 1   
     4     2     3 1   
     5     2     7 2   
     6     3     4 1   
     7     3    46 1   
     8     4     5 1   
     9     4     8 2   
    10     5     6 2   
    11     5    47 1   
    12     6    48 1   
    13     9    10 1   
    14     9    11 1   
    15     9    12 1   
    16     9    24 1   
    17    12    13 1   
    18    13    14 1   
    19    13    15 1   
    20    13    30 1   
    21    16    17 1   
    22    16    22 1   
    23    16    49 1   
    24    17    18 1   
    25    17    19 1   
    26    17    50 1   
    27    18    51 1   
    28    19    20 1   
    29    19    21 1   
    30    19    52 1   
    31    20    53 1   
    32    21    22 1   
    33    21    23 1   
    34    21    54 1   
    35    23    24 1   
    36    23    55 1   
    37    23    56 1   
    38    25    26 1   
    39    25    28 1   
    40    25    37 1   
    41    25    57 1   
    42    26    27 1   
    43    26    44 1   
    44    28    58 1   
    45    28    59 1   
    46    28    60 1   
    47    29    30 1   
    48    29    31 1   
    49    29    41 1   
    50    29    61 1   
    51    31    32 1   
    52    31    36 1   
    53    31    62 1   
    54    32    33 1   
    55    32    63 1   
    56    33    34 2   
    57    33    35 1   
    58    35    45 1   
    59    35    64 1   
    60    35    65 1   
    61    36    37 1   
    62    36    38 1   
    63    36    66 1   
    64    38    39 1   
    65    38    40 1   
    66    38    67 1   
    67    39    68 1   
    68    40    41 1   
    69    40    42 1   
    70    40    69 1   
    71    42    43 1   
    72    42    70 1   
    73    42    71 1   
    74    43    72 1   
    75    45    73 1   
@<TRIPOS>SUBSTRUCTURE
     1 UPM         1 TEMP              0 ****  ****    0 ROOT
