@<TRIPOS>MOLECULE
UPN
   70    72     1     0     0
SMALL
No Charge or Current Charge


@<TRIPOS>ATOM
      1 C1          -2.2000     1.4490    -1.4640 c6         1 UPN       0.440300
      2 O1          -0.8180     1.6820    -1.7580 os         1 UPN      -0.637400
      3 C2          -2.4430     0.5940    -0.1710 c6         1 UPN       0.081700
      4 N2          -1.9450     1.2240     1.0730 ns         1 UPN      -0.482900
      5 C3          -1.8630    -0.8430    -0.3640 c6         1 UPN       0.157300
      6 O3          -2.1370    -1.6520     0.8110 os         1 UPN      -0.289100
      7 C4          -2.4740    -1.4970    -1.6470 c6         1 UPN       0.112300
      8 O4          -3.8780    -1.7760    -1.4460 oh         1 UPN      -0.685000
      9 C5          -2.2240    -0.5480    -2.8610 c6         1 UPN       0.147300
     10 O5          -2.7760     0.7720    -2.6040 os         1 UPN      -0.463000
     11 C6          -2.8270    -1.1040    -4.1940 c3         1 UPN       0.161600
     12 O6          -2.5620    -0.2680    -5.3350 oh         1 UPN      -0.690000
     13 C7          -2.6310     1.3080     2.2590 c          1 UPN       0.623100
     14 O7          -3.7910     0.9390     2.3770 o          1 UPN      -0.654100
     15 C8          -1.8510     1.9080     3.4180 c3         1 UPN      -0.192100
     16 PA           0.7120     3.9150     0.9690 p5         1 UPN       1.468800
     17 PB          -0.1440     3.0780    -1.3380 p5         1 UPN       1.496800
     18 O1A         -0.3810     4.8340     1.3950 o          1 UPN      -0.846500
     19 O1B          1.0820     3.2530    -2.1660 o          1 UPN      -0.859500
     20 C1D          2.2300    -1.0420     1.2430 c5         1 UPN       0.343700
     21 C1E         -1.9430    -3.6110     2.3140 c          1 UPN       0.724200
     22 O1E         -1.4050    -4.6720     2.6100 o          1 UPN      -0.718500
     23 N1U          2.2790    -1.2390    -0.2300 n          1 UPN      -0.310000
     24 O2A          1.8800     4.6340     0.3830 o          1 UPN      -0.846500
     25 O2B         -1.1230     4.1890    -1.5030 o          1 UPN      -0.859500
     26 C2D          3.6720    -0.6410     1.6950 c5         1 UPN       0.062300
     27 O2D          4.5850    -1.7540     1.8360 oh         1 UPN      -0.715000
     28 C2E         -1.4660    -2.8530     1.0570 ce         1 UPN       0.020900
     29 O2E         -2.8570    -3.1410     2.9830 o          1 UPN      -0.718500
     30 C2U          2.7310    -2.4840    -0.7020 c          1 UPN       0.628000
     31 O2U          3.2110    -3.3330     0.0320 o          1 UPN      -0.609000
     32 O3A          0.1800     2.6810     0.1480 os         1 UPN      -0.727800
     33 C3D          3.3240    -0.0030     3.0660 c5         1 UPN       0.097300
     34 O3D          3.0610    -1.0220     4.0410 oh         1 UPN      -0.721000
     35 C3E         -0.4690    -3.3260     0.2550 c2         1 UPN      -0.508000
     36 N3U          2.6440    -2.6910    -2.0430 ns         1 UPN      -0.469500
     37 C4D          2.0480     0.8270     2.6820 c5         1 UPN       0.162300
     38 O4D          1.3900     0.0710     1.6240 os         1 UPN      -0.415000
     39 C4U          2.1930    -1.8330    -2.9930 c          1 UPN       0.591200
     40 O4U          2.1560    -2.1310    -4.1720 o          1 UPN      -0.566000
     41 C5D          2.3790     2.2600     2.1750 c3         1 UPN       0.210600
     42 O5D          1.1920     3.0650     2.2480 os         1 UPN      -0.587400
     43 C5U          1.7750    -0.5430    -2.4590 cc         1 UPN      -0.372200
     44 C6U          1.8260    -0.2580    -1.1130 cd         1 UPN       0.014600
     45 H1          -2.7300     2.4070    -1.3420 h2         1 UPN       0.095700
     46 H2          -3.5340     0.4970    -0.0760 h1         1 UPN       0.093700
     47 HN2         -0.9960     1.5920     1.0670 hn         1 UPN       0.350500
     48 H3          -0.7760    -0.7440    -0.4770 h1         1 UPN       0.067700
     49 H4          -1.9470    -2.4390    -1.8510 h1         1 UPN       0.038700
     50 HO4         -3.9440    -2.2190    -0.5700 ho         1 UPN       0.464000
     51 H5          -1.1390    -0.4570    -3.0140 h1         1 UPN       0.071700
     52 H6          -2.4090    -2.1050    -4.3670 h1         1 UPN       0.006200
     53 H6A         -3.9110    -1.2210    -4.0690 h1         1 UPN       0.006200
     54 HO6         -3.0540    -0.6560    -6.0930 ho         1 UPN       0.466000
     55 H8          -1.5190     2.9130     3.1410 hc         1 UPN       0.063367
     56 H8A         -2.4250     1.9210     4.3520 hc         1 UPN       0.063367
     57 H8B         -0.9050     1.3680     3.5290 hc         1 UPN       0.063367
     58 H1D          1.8800    -1.9680     1.7190 h2         1 UPN       0.093700
     59 H2D          4.0870     0.1150     1.0110 h1         1 UPN       0.090700
     60 HO2D         4.2820    -2.4530     1.1940 ho         1 UPN       0.496000
     61 H3D          4.1370     0.6500     3.4170 h1         1 UPN       0.052700
     62 HO3D         3.7220    -1.7280     3.8390 ho         1 UPN       0.498000
     63 H3E         -0.1140    -2.8130    -0.6340 ha         1 UPN       0.153500
     64 H3EA         0.0310    -4.2670     0.4820 ha         1 UPN       0.153500
     65 H4D          1.3750     0.9130     3.5440 h1         1 UPN       0.081700
     66 H5D          3.1560     2.6950     2.8150 h1         1 UPN       0.036700
     67 H5DA         2.7770     2.2010     1.1530 h1         1 UPN       0.036700
     68 H5U          1.4210     0.1780    -3.1880 ha         1 UPN       0.261000
     69 H6U          1.5260     0.6870    -0.6650 h4         1 UPN       0.280000
     70 HN3U         2.9630    -3.5880    -2.3710 hn         1 UPN       0.316500
@<TRIPOS>BOND
     1     1     2 1   
     2     1     3 1   
     3     1    10 1   
     4     1    45 1   
     5     2    17 1   
     6     3     4 1   
     7     3     5 1   
     8     3    46 1   
     9     4    13 1   
    10     4    47 1   
    11     5     6 1   
    12     5     7 1   
    13     5    48 1   
    14     6    28 1   
    15     7     8 1   
    16     7     9 1   
    17     7    49 1   
    18     8    50 1   
    19     9    10 1   
    20     9    11 1   
    21     9    51 1   
    22    11    12 1   
    23    11    52 1   
    24    11    53 1   
    25    12    54 1   
    26    13    14 2   
    27    13    15 1   
    28    15    55 1   
    29    15    56 1   
    30    15    57 1   
    31    16    18 1   
    32    16    24 1   
    33    16    32 1   
    34    16    42 1   
    35    17    19 1   
    36    17    25 1   
    37    17    32 1   
    38    20    23 1   
    39    20    26 1   
    40    20    38 1   
    41    20    58 1   
    42    21    22 1   
    43    21    28 1   
    44    21    29 1   
    45    23    30 1   
    46    23    44 1   
    47    26    27 1   
    48    26    33 1   
    49    26    59 1   
    50    27    60 1   
    51    28    35 2   
    52    30    31 2   
    53    30    36 1   
    54    33    34 1   
    55    33    37 1   
    56    33    61 1   
    57    34    62 1   
    58    35    63 1   
    59    35    64 1   
    60    36    39 1   
    61    36    70 1   
    62    37    38 1   
    63    37    41 1   
    64    37    65 1   
    65    39    40 2   
    66    39    43 1   
    67    41    42 1   
    68    41    66 1   
    69    41    67 1   
    70    43    44 2   
    71    43    68 1   
    72    44    69 1   
@<TRIPOS>SUBSTRUCTURE
     1 UPN         1 TEMP              0 ****  ****    0 ROOT
