@<TRIPOS>MOLECULE
UPN
   70    72     1     0     0
SMALL
abcg2


@<TRIPOS>ATOM
      1 C1          -2.3210     1.2790    -1.3350 c6         1 UPN       0.440300
      2 O1          -0.9540     1.2360    -1.0300 os         1 UPN      -0.637400
      3 C2          -3.0730     0.3360    -0.3890 c6         1 UPN       0.081700
      4 N2          -2.8170     0.6970     0.9780 ns         1 UPN      -0.482900
      5 C3          -2.6890    -1.1140    -0.6820 c6         1 UPN       0.157300
      6 O3          -3.4520    -1.9290     0.1720 os         1 UPN      -0.289100
      7 C4          -2.9440    -1.4230    -2.1590 c6         1 UPN       0.112300
      8 O4          -4.3340    -1.3770    -2.3710 oh         1 UPN      -0.685000
      9 C5          -2.1830    -0.4040    -3.0100 c6         1 UPN       0.147300
     10 O5          -2.5310     0.9250    -2.6650 os         1 UPN      -0.463000
     11 C6          -2.4660    -0.5820    -4.4870 c3         1 UPN       0.161600
     12 O6          -1.5990     0.2490    -5.2200 oh         1 UPN      -0.690000
     13 C7          -3.7760     0.9110     1.9010 c          1 UPN       0.623100
     14 O7          -4.9720     0.8620     1.6530 o          1 UPN      -0.654100
     15 C8          -3.2450     1.2140     3.2800 c3         1 UPN      -0.192100
     16 PA           0.4710     3.4340     2.1080 p5         1 UPN       1.468800
     17 PB          -0.0610     2.5790    -0.6680 p5         1 UPN       1.496800
     18 O1A         -0.5320     3.5220     3.2120 o          1 UPN      -0.846500
     19 O1B          1.3390     2.2710    -1.0990 o          1 UPN      -0.859500
     20 C1D          3.9570    -0.6790     1.4970 c5         1 UPN       0.343700
     21 C1E         -3.9620    -3.8790     1.4610 c          1 UPN       0.724200
     22 O1E         -3.5630    -4.9700     1.9100 o          1 UPN      -0.718500
     23 N1U          3.1270    -1.3850     0.5330 n          1 UPN      -0.310000
     24 O2A          1.0520     4.6420     1.4480 o          1 UPN      -0.846500
     25 O2B         -0.7830     3.7970    -1.1440 o          1 UPN      -0.859500
     26 C2D          4.9360     0.2980     0.8520 c5         1 UPN       0.062300
     27 O2D          6.0790    -0.3840     0.4290 oh         1 UPN      -0.715000
     28 C2E         -3.0200    -3.1680     0.4800 ce         1 UPN       0.020900
     29 O2E         -5.0330    -3.3040     1.7080 o          1 UPN      -0.718500
     30 C2U          3.2780    -2.7480     0.3680 c          1 UPN       0.628000
     31 O2U          4.0530    -3.4210     1.0160 o          1 UPN      -0.609000
     32 O3A         -0.1790     2.4400     0.9650 os         1 UPN      -0.727800
     33 C3D          5.1580     1.2880     1.9980 c5         1 UPN       0.097300
     34 O3D          6.0470     0.7600     2.9480 oh         1 UPN      -0.721000
     35 C3E         -1.9170    -3.7560     0.0100 c2         1 UPN      -0.508000
     36 N3U          2.4790    -3.2940    -0.6020 ns         1 UPN      -0.469500
     37 C4D          3.7630     1.3570     2.6110 c5         1 UPN       0.162300
     38 O4D          3.1420     0.0950     2.3290 os         1 UPN      -0.415000
     39 C4U          1.5610    -2.6510    -1.4190 c          1 UPN       0.591200
     40 O4U          0.9280    -3.2750    -2.2520 o          1 UPN      -0.566000
     41 C5D          2.9400     2.5010     2.0570 c3         1 UPN       0.210600
     42 O5D          1.6750     2.4820     2.6840 os         1 UPN      -0.587400
     43 C5U          1.4610    -1.2380    -1.1630 cc         1 UPN      -0.372200
     44 C6U          2.2300    -0.6790    -0.2170 cd         1 UPN       0.014600
     45 H1          -2.7140     2.2920    -1.2270 h2         1 UPN       0.095700
     46 H2          -4.1410     0.4680    -0.5710 h1         1 UPN       0.093700
     47 HN2         -1.8530     0.7970     1.2620 hn         1 UPN       0.350500
     48 H3          -1.6170    -1.2420    -0.4770 h1         1 UPN       0.067700
     49 H4          -2.5430    -2.4160    -2.3970 h1         1 UPN       0.038700
     50 HO4         -4.5460    -1.8810    -3.1620 ho         1 UPN       0.464000
     51 H5          -1.1090    -0.5790    -2.8530 h1         1 UPN       0.071700
     52 H6          -2.3170    -1.6420    -4.7350 h1         1 UPN       0.006200
     53 H6A         -3.5180    -0.3470    -4.6910 h1         1 UPN       0.006200
     54 HO6         -1.8310     0.1740    -6.1500 ho         1 UPN       0.466000
     55 H8          -2.3770     1.8740     3.2500 hc         1 UPN       0.063367
     56 H8A         -4.0210     1.6710     3.8900 hc         1 UPN       0.063367
     57 H8B         -2.9360     0.2860     3.7660 hc         1 UPN       0.063367
     58 H1D          4.5020    -1.4400     2.0600 h2         1 UPN       0.093700
     59 H2D          4.4520     0.8220     0.0170 h1         1 UPN       0.090700
     60 HO2D         6.5480     0.1600    -0.2110 ho         1 UPN       0.496000
     61 H3D          5.4930     2.2680     1.6330 h1         1 UPN       0.052700
     62 HO3D         6.7990     0.3850     2.4740 ho         1 UPN       0.498000
     63 H3E         -1.2430    -3.3170    -0.7100 ha         1 UPN       0.153500
     64 H3EA        -1.6740    -4.7470     0.3580 ha         1 UPN       0.153500
     65 H4D          3.8350     1.4680     3.6980 h1         1 UPN       0.081700
     66 H5D          3.4690     3.4340     2.2770 h1         1 UPN       0.036700
     67 H5DA         2.8500     2.4310     0.9670 h1         1 UPN       0.036700
     68 H5U          0.7730    -0.6260    -1.7230 ha         1 UPN       0.261000
     69 H6U          2.1540     0.3820    -0.0240 h4         1 UPN       0.280000
     70 HN3U         2.5910    -4.2920    -0.7380 hn         1 UPN       0.316500
@<TRIPOS>BOND
     1     1     2 1   
     2     1     3 1   
     3     1    10 1   
     4     1    45 1   
     5     2    17 1   
     6     3     4 1   
     7     3     5 1   
     8     3    46 1   
     9     4    13 1   
    10     4    47 1   
    11     5     6 1   
    12     5     7 1   
    13     5    48 1   
    14     6    28 1   
    15     7     8 1   
    16     7     9 1   
    17     7    49 1   
    18     8    50 1   
    19     9    10 1   
    20     9    11 1   
    21     9    51 1   
    22    11    12 1   
    23    11    52 1   
    24    11    53 1   
    25    12    54 1   
    26    13    14 2   
    27    13    15 1   
    28    15    55 1   
    29    15    56 1   
    30    15    57 1   
    31    16    18 1   
    32    16    24 1   
    33    16    32 1   
    34    16    42 1   
    35    17    19 1   
    36    17    25 1   
    37    17    32 1   
    38    20    23 1   
    39    20    26 1   
    40    20    38 1   
    41    20    58 1   
    42    21    22 1   
    43    21    28 1   
    44    21    29 1   
    45    23    30 1   
    46    23    44 1   
    47    26    27 1   
    48    26    33 1   
    49    26    59 1   
    50    27    60 1   
    51    28    35 2   
    52    30    31 2   
    53    30    36 1   
    54    33    34 1   
    55    33    37 1   
    56    33    61 1   
    57    34    62 1   
    58    35    63 1   
    59    35    64 1   
    60    36    39 1   
    61    36    70 1   
    62    37    38 1   
    63    37    41 1   
    64    37    65 1   
    65    39    40 2   
    66    39    43 1   
    67    41    42 1   
    68    41    66 1   
    69    41    67 1   
    70    43    44 2   
    71    43    68 1   
    72    44    69 1   
@<TRIPOS>SUBSTRUCTURE
     1 UPN         1 TEMP              0 ****  ****    0 ROOT
