@<TRIPOS>MOLECULE
UPO
   53    56     1     0     0
SMALL
No Charge or Current Charge


@<TRIPOS>ATOM
      1 C10         16.7040    64.1210    37.5680 ca         1 UPO       0.422900
      2 C13         15.4350    67.3040    39.0090 c6         1 UPO      -0.064100
      3 C15         15.4030    68.0940    41.4220 ca         1 UPO      -0.191000
      4 C21         15.9340    67.1190    45.7300 c3         1 UPO       0.149900
      5 C22         16.0960    65.5450    42.3500 ca         1 UPO      -0.083000
      6 C24         16.1760    64.5890    39.9980 c6         1 UPO       0.261100
      7 C26         17.3500    62.0360    36.9380 ca         1 UPO       0.412900
      8 C01         18.2750    61.1920    30.7330 c3         1 UPO       0.148900
      9 C03         18.4950    63.4920    31.6110 ca         1 UPO       0.129100
     10 C04         18.8190    64.8300    31.3420 ca         1 UPO      -0.132000
     11 C05         18.7500    65.7920    32.3600 ca         1 UPO      -0.088000
     12 C06         18.3530    65.4190    33.6550 ca         1 UPO      -0.128000
     13 C07         18.0120    64.0750    33.9660 cp         1 UPO      -0.117500
     14 C08         17.5870    63.6760    35.3550 cp         1 UPO       0.239500
     15 C09         17.0660    64.5940    36.2980 ca         1 UPO      -0.328000
     16 C12         15.1660    66.0080    38.2190 c6         1 UPO       0.213800
     17 C14         15.5950    67.0450    40.5060 ca         1 UPO      -0.038300
     18 C16         15.5510    67.8850    42.8140 ca         1 UPO       0.126100
     19 C18         15.0000    70.2600    43.2870 c3         1 UPO       0.144900
     20 C19         15.9030    66.5810    43.2820 ca         1 UPO       0.069100
     21 C23         15.9490    65.7620    40.9690 ca         1 UPO      -0.132300
     22 C29         18.0960    63.1190    32.9140 ca         1 UPO      -0.154000
     23 N11         16.1900    64.9860    38.5590 nh         1 UPO      -0.762300
     24 N25         16.8610    62.8260    37.8950 nb         1 UPO      -0.324000
     25 N27         17.4980    60.7330    37.2660 nv         1 UPO      -1.059900
     26 N28         17.7120    62.3790    35.6990 nb         1 UPO      -0.286000
     27 O17         15.3560    68.9300    43.7040 os         1 UPO      -0.326100
     28 O20         16.0820    66.2230    44.6140 os         1 UPO      -0.346100
     29 H1          16.3490    67.7790    38.6260 hc         1 UPO       0.059200
     30 H2          14.6160    68.0130    38.8290 hc         1 UPO       0.059200
     31 H3          15.1390    69.0700    41.0280 ha         1 UPO       0.117000
     32 H4          16.1280    66.5860    46.6690 h1         1 UPO       0.034700
     33 H5          16.6480    67.9500    45.6630 h1         1 UPO       0.034700
     34 H6          14.9140    67.5220    45.7780 h1         1 UPO       0.034700
     35 H7          16.3660    64.5560    42.7120 ha         1 UPO       0.126000
     36 H8          15.3900    63.8370    40.1720 h1         1 UPO       0.076200
     37 H9          17.1350    64.1180    40.2640 h1         1 UPO       0.076200
     38 H10         18.4120    60.6600    29.7830 h1         1 UPO       0.041367
     39 H11         18.9360    60.7320    31.4780 h1         1 UPO       0.041367
     40 H12         17.2340    61.0560    31.0510 h1         1 UPO       0.041367
     41 H13         19.1270    65.1200    30.3410 ha         1 UPO       0.126000
     42 H14         19.0080    66.8270    32.1480 ha         1 UPO       0.114000
     43 H15         18.3260    66.1860    34.4240 ha         1 UPO       0.113000
     44 H16         16.9540    65.6420    36.0510 ha         1 UPO       0.131000
     45 H17         15.1530    66.2390    37.1450 h1         1 UPO       0.061200
     46 H18         14.1640    65.6320    38.4760 h1         1 UPO       0.061200
     47 H19         14.9000    70.9160    44.1610 h1         1 UPO       0.041033
     48 H20         15.7730    70.6840    42.6330 h1         1 UPO       0.041033
     49 H21         14.0420    70.2590    42.7520 h1         1 UPO       0.041033
     50 H22         17.8380    62.0860    33.1240 ha         1 UPO       0.140000
     51 H23         18.0710    60.1490    36.6630 hn         1 UPO       0.488500
     52 H24         17.4510    60.4730    38.2480 hn         1 UPO       0.488500
     53 O02         18.5820    62.5890    30.5700 os         1 UPO      -0.345100
@<TRIPOS>BOND
     1     1    15 ar  
     2     1    23 1   
     3     1    24 ar  
     4     2    16 1   
     5     2    17 1   
     6     2    29 1   
     7     2    30 1   
     8     3    17 ar  
     9     3    18 ar  
    10     3    31 1   
    11     4    28 1   
    12     4    32 1   
    13     4    33 1   
    14     4    34 1   
    15     5    20 ar  
    16     5    21 ar  
    17     5    35 1   
    18     6    21 1   
    19     6    23 1   
    20     6    36 1   
    21     6    37 1   
    22     7    24 ar  
    23     7    25 1   
    24     7    26 ar  
    25     8    38 1   
    26     8    39 1   
    27     8    40 1   
    28     8    53 1   
    29     9    10 ar  
    30     9    22 ar  
    31     9    53 1   
    32    10    11 ar  
    33    10    41 1   
    34    11    12 ar  
    35    11    42 1   
    36    12    13 ar  
    37    12    43 1   
    38    13    14 1   
    39    13    22 ar  
    40    14    15 ar  
    41    14    26 ar  
    42    15    44 1   
    43    16    23 1   
    44    16    45 1   
    45    16    46 1   
    46    17    21 ar  
    47    18    20 ar  
    48    18    27 1   
    49    19    27 1   
    50    19    47 1   
    51    19    48 1   
    52    19    49 1   
    53    20    28 1   
    54    22    50 1   
    55    25    51 1   
    56    25    52 1   
@<TRIPOS>SUBSTRUCTURE
     1 UPO         1 TEMP              0 ****  ****    0 ROOT
