@<TRIPOS>MOLECULE
UPO
   53    56     1     0     0
SMALL
abcg2


@<TRIPOS>ATOM
      1 C10         15.7850    64.0550    37.7350 ca         1 UPO       0.422900
      2 C13         14.7130    66.9630    38.6730 c6         1 UPO      -0.064100
      3 C15         15.4680    67.8560    40.8930 ca         1 UPO      -0.191000
      4 C21         17.5750    66.1200    44.3190 c3         1 UPO       0.149900
      5 C22         15.4620    65.3400    42.0200 ca         1 UPO      -0.083000
      6 C24         14.6580    64.2760    39.8900 c6         1 UPO       0.261100
      7 C26         17.4890    62.5590    37.5360 ca         1 UPO       0.412900
      8 C01         19.8250    61.8830    31.9530 c3         1 UPO       0.148900
      9 C03         18.7110    63.9400    32.3610 ca         1 UPO       0.129100
     10 C04         18.3700    65.2100    31.8900 ca         1 UPO      -0.132000
     11 C05         17.6440    66.0660    32.6970 ca         1 UPO      -0.088000
     12 C06         17.2410    65.6780    33.9680 ca         1 UPO      -0.128000
     13 C07         17.5680    64.4110    34.4400 cp         1 UPO      -0.117500
     14 C08         17.1520    63.9560    35.7890 cp         1 UPO       0.239500
     15 C09         16.0870    64.5420    36.4460 ca         1 UPO      -0.328000
     16 C12         14.0210    65.7340    38.1030 c6         1 UPO       0.213800
     17 C14         15.0890    66.7560    40.1190 ca         1 UPO      -0.038300
     18 C16         15.8420    67.7080    42.2210 ca         1 UPO       0.126100
     19 C18         16.2450    70.0240    42.5060 c3         1 UPO       0.144900
     20 C19         15.8340    66.4230    42.7900 ca         1 UPO       0.069100
     21 C23         15.0840    65.4870    40.6870 ca         1 UPO      -0.132300
     22 C29         18.3140    63.5470    33.6330 ca         1 UPO      -0.154000
     23 N11         14.7470    64.5330    38.4680 nh         1 UPO      -0.762300
     24 N25         16.5030    63.0690    38.2680 nb         1 UPO      -0.324000
     25 N27         18.1680    61.5180    38.0710 nv         1 UPO      -1.059900
     26 N28         17.8580    62.9560    36.3190 nb         1 UPO      -0.286000
     27 O17         16.2150    68.7140    43.0330 os         1 UPO      -0.326100
     28 O20         16.1790    66.2580    44.0970 os         1 UPO      -0.346100
     29 H1          15.6120    67.1850    38.0900 hc         1 UPO       0.059200
     30 H2          14.0610    67.8340    38.5730 hc         1 UPO       0.059200
     31 H3          15.4600    68.8350    40.4290 ha         1 UPO       0.117000
     32 H4          17.7220    66.0130    45.3920 h1         1 UPO       0.034700
     33 H5          17.9730    65.2330    43.8190 h1         1 UPO       0.034700
     34 H6          18.1340    66.9940    43.9750 h1         1 UPO       0.034700
     35 H7          15.4660    64.3550    42.4750 ha         1 UPO       0.126000
     36 H8          13.6200    64.0180    40.1300 h1         1 UPO       0.076200
     37 H9          15.2670    63.4130    40.1450 h1         1 UPO       0.076200
     38 H10         20.3980    61.4490    31.1380 h1         1 UPO       0.041367
     39 H11         20.4580    61.9290    32.8420 h1         1 UPO       0.041367
     40 H12         18.9690    61.2360    32.1630 h1         1 UPO       0.041367
     41 H13         18.6820    65.5160    30.8990 ha         1 UPO       0.126000
     42 H14         17.3940    67.0540    32.3340 ha         1 UPO       0.114000
     43 H15         16.6940    66.3780    34.5850 ha         1 UPO       0.113000
     44 H16         15.5180    65.3330    35.9870 ha         1 UPO       0.131000
     45 H17         13.8950    65.8100    37.0260 h1         1 UPO       0.061200
     46 H18         13.0150    65.6420    38.5210 h1         1 UPO       0.061200
     47 H19         16.5760    70.6740    43.3120 h1         1 UPO       0.041033
     48 H20         16.9460    70.1150    41.6720 h1         1 UPO       0.041033
     49 H21         15.2580    70.3540    42.1720 h1         1 UPO       0.041033
     50 H22         18.5650    62.5720    34.0250 ha         1 UPO       0.140000
     51 H23         19.0450    61.2600    37.6510 hn         1 UPO       0.488500
     52 H24         18.0730    61.3430    39.0560 hn         1 UPO       0.488500
     53 O02         19.4250    63.1670    31.5200 os         1 UPO      -0.345100
@<TRIPOS>BOND
     1     1    15 ar  
     2     1    23 1   
     3     1    24 ar  
     4     2    16 1   
     5     2    17 1   
     6     2    29 1   
     7     2    30 1   
     8     3    17 ar  
     9     3    18 ar  
    10     3    31 1   
    11     4    28 1   
    12     4    32 1   
    13     4    33 1   
    14     4    34 1   
    15     5    20 ar  
    16     5    21 ar  
    17     5    35 1   
    18     6    21 1   
    19     6    23 1   
    20     6    36 1   
    21     6    37 1   
    22     7    24 ar  
    23     7    25 1   
    24     7    26 ar  
    25     8    38 1   
    26     8    39 1   
    27     8    40 1   
    28     8    53 1   
    29     9    10 ar  
    30     9    22 ar  
    31     9    53 1   
    32    10    11 ar  
    33    10    41 1   
    34    11    12 ar  
    35    11    42 1   
    36    12    13 ar  
    37    12    43 1   
    38    13    14 1   
    39    13    22 ar  
    40    14    15 ar  
    41    14    26 ar  
    42    15    44 1   
    43    16    23 1   
    44    16    45 1   
    45    16    46 1   
    46    17    21 ar  
    47    18    20 ar  
    48    18    27 1   
    49    19    27 1   
    50    19    47 1   
    51    19    48 1   
    52    19    49 1   
    53    20    28 1   
    54    22    50 1   
    55    25    51 1   
    56    25    52 1   
@<TRIPOS>SUBSTRUCTURE
     1 UPO         1 TEMP              0 ****  ****    0 ROOT
