@<TRIPOS>MOLECULE
UPP
   47    49     1     0     0
SMALL
bcc


@<TRIPOS>ATOM
      1 N1          -0.6460     0.5660     4.2860 n          1 UPP      -0.376000
      2 C2          -0.9770    -0.7670     4.4360 c          1 UPP       0.835500
      3 N3          -2.2690    -0.9970     4.8300 ns         1 UPP      -0.601500
      4 C4          -3.2620    -0.0670     5.0960 c          1 UPP       0.741700
      5 C5          -2.8330     1.2970     4.9070 cc         1 UPP      -0.360200
      6 C6          -1.5740     1.5440     4.5110 cd         1 UPP       0.083600
      7 O2          -0.1920    -1.6690     4.2420 o          1 UPP      -0.614500
      8 O4          -4.3690    -0.4280     5.4490 o          1 UPP      -0.636500
      9 C1B          0.6790     0.9380     3.8060 c5         1 UPP       0.309500
     10 C2B          1.8740     0.4340     4.6360 c5         1 UPP       0.073100
     11 O6           2.7040     1.5360     4.8940 oh         1 UPP      -0.610800
     12 C3B          2.5750    -0.5570     3.6870 c5         1 UPP       0.064100
     13 C4B          2.1240    -0.0820     2.3060 c5         1 UPP       0.145100
     14 O7           0.8370     0.4810     2.4950 os         1 UPP      -0.350600
     15 O3           3.9750    -0.4970     3.7770 oh         1 UPP      -0.587800
     16 C5B          2.0480    -1.2020     1.3010 c3         1 UPP       0.204400
     17 O5           1.7030    -0.6790     0.0370 os         1 UPP      -0.540200
     18 PA           1.0910    -1.7420    -1.0620 p5         1 UPP       1.455800
     19 O1A          2.1500    -2.7230    -1.4550 o          1 UPP      -0.845500
     20 O2A         -0.2540    -2.2100    -0.6090 o          1 UPP      -0.845500
     21 O3A          0.9330    -0.5820    -2.2210 os         1 UPP      -0.686800
     22 PB           0.7250    -0.9190    -3.8060 p5         1 UPP       1.453800
     23 O1B          1.9690    -0.5870    -4.5620 o          1 UPP      -0.836000
     24 O2B          0.0300    -2.2270    -3.9950 o          1 UPP      -0.836000
     25 O3B         -0.3770     0.3160    -4.0290 os         1 UPP      -0.458500
     26 C1          -0.8900     0.4890    -5.2790 ca         1 UPP       0.226100
     27 C7          -2.0510    -0.1810    -5.6520 ca         1 UPP      -0.168000
     28 C3          -2.5990     0.0380    -6.9090 ca         1 UPP      -0.131000
     29 C8          -1.9910     0.9110    -7.8010 ca         1 UPP      -0.203000
     30 C9          -0.8280     1.5720    -7.4250 ca         1 UPP      -0.131000
     31 C10         -0.2720     1.3590    -6.1700 ca         1 UPP      -0.168000
     32 HN3         -2.5160    -1.9730     4.9430 hn         1 UPP       0.337500
     33 H5          -3.5250     2.1070     5.0750 ha         1 UPP       0.160000
     34 H6          -1.2280     2.5550     4.3510 h4         1 UPP       0.152000
     35 H1           0.6870     2.0310     3.8400 h2         1 UPP       0.067700
     36 H2B          1.5540    -0.0400     5.5700 h1         1 UPP       0.053700
     37 HO2          3.6160     1.2310     4.7890 ho         1 UPP       0.425000
     38 H3B          2.2090    -1.5670     3.8770 h1         1 UPP       0.083700
     39 H4B          2.8200     0.6910     1.9480 h1         1 UPP       0.073700
     40 HO3          4.2730    -1.1490     4.4200 ho         1 UPP       0.399000
     41 H5'1         3.0250    -1.6990     1.2670 h1         1 UPP       0.029200
     42 H5'2         1.3140    -1.9390     1.6490 h1         1 UPP       0.029200
     43 H2          -2.5260    -0.8600    -4.9560 ha         1 UPP       0.151500
     44 H3          -3.5070    -0.4810    -7.1920 ha         1 UPP       0.096500
     45 H4          -2.4200     1.0790    -8.7800 ha         1 UPP       0.091000
     46 H7          -0.3450     2.2550    -8.1120 ha         1 UPP       0.096500
     47 H8           0.6340     1.8730    -5.8760 ha         1 UPP       0.151500
@<TRIPOS>BOND
     1     1     2 1   
     2     1     6 1   
     3     1     9 1   
     4     2     3 1   
     5     2     7 2   
     6     3     4 1   
     7     3    32 1   
     8     4     5 1   
     9     4     8 2   
    10     5     6 2   
    11     5    33 1   
    12     6    34 1   
    13     9    10 1   
    14     9    14 1   
    15     9    35 1   
    16    10    11 1   
    17    10    12 1   
    18    10    36 1   
    19    11    37 1   
    20    12    13 1   
    21    12    15 1   
    22    12    38 1   
    23    13    14 1   
    24    13    16 1   
    25    13    39 1   
    26    15    40 1   
    27    16    17 1   
    28    16    41 1   
    29    16    42 1   
    30    17    18 1   
    31    18    19 1   
    32    18    20 1   
    33    18    21 1   
    34    21    22 1   
    35    22    23 1   
    36    22    24 1   
    37    22    25 1   
    38    25    26 1   
    39    26    27 ar  
    40    26    31 ar  
    41    27    28 ar  
    42    27    43 1   
    43    28    29 ar  
    44    28    44 1   
    45    29    30 ar  
    46    29    45 1   
    47    30    31 ar  
    48    30    46 1   
    49    31    47 1   
@<TRIPOS>SUBSTRUCTURE
     1 UPP         1 TEMP              0 ****  ****    0 ROOT
