@<TRIPOS>MOLECULE
UPP
   47    49     1     0     0
SMALL
No Charge or Current Charge


@<TRIPOS>ATOM
      1 N1          -0.7590     0.6460     2.3450 n          1 UPP      -0.309000
      2 C2          -1.1540    -0.1480     3.4480 c          1 UPP       0.626000
      3 N3          -2.3570     0.1610     4.0040 ns         1 UPP      -0.467500
      4 C4          -3.2230     1.1400     3.6460 c          1 UPP       0.599200
      5 C5          -2.7610     1.9400     2.5190 cc         1 UPP      -0.410200
      6 C6          -1.5620     1.6910     1.8940 cd         1 UPP       0.033600
      7 O2          -0.4800    -1.0440     3.9280 o          1 UPP      -0.539000
      8 O4          -4.2780     1.3200     4.2270 o          1 UPP      -0.561000
      9 C1B          0.4970     0.3460     1.6050 c5         1 UPP       0.332700
     10 C2B          1.7160     0.9020     2.4390 c5         1 UPP       0.096300
     11 O6           2.5520     1.7990     1.6960 oh         1 UPP      -0.733000
     12 C3B          2.5340    -0.4050     2.7010 c5         1 UPP       0.087300
     13 C4B          2.1520    -1.2450     1.4410 c5         1 UPP       0.168300
     14 O7           0.7240    -1.0600     1.4080 os         1 UPP      -0.397000
     15 O3           3.9440    -0.1080     2.8100 oh         1 UPP      -0.710000
     16 C5B          2.5190    -2.7590     1.5120 c3         1 UPP       0.227600
     17 O5           2.7100    -3.3270     0.1980 os         1 UPP      -0.563400
     18 PA           1.4970    -3.5140    -0.8540 p5         1 UPP       1.455800
     19 O1A          1.9360    -4.4650    -1.9180 o          1 UPP      -0.845500
     20 O2A          0.2740    -3.9830    -0.1380 o          1 UPP      -0.845500
     21 O3A          1.4390    -2.0220    -1.3490 os         1 UPP      -0.686800
     22 PB           0.5460    -1.7840    -2.6240 p5         1 UPP       1.453800
     23 O1B          1.3350    -1.9150    -3.8870 o          1 UPP      -0.836000
     24 O2B         -0.7240    -2.5690    -2.6610 o          1 UPP      -0.836000
     25 O3B          0.2350    -0.2300    -2.3160 os         1 UPP      -0.458500
     26 C1          -0.6100     0.6160    -2.9880 ca         1 UPP       0.226100
     27 C7          -1.2970     0.2460    -4.1660 ca         1 UPP      -0.150000
     28 C3          -2.1470     1.1660    -4.8040 ca         1 UPP      -0.113000
     29 C8          -2.3130     2.4560    -4.2740 ca         1 UPP      -0.185000
     30 C9          -1.6290     2.8310    -3.1070 ca         1 UPP      -0.113000
     31 C10         -0.7790     1.9110    -2.4690 ca         1 UPP      -0.150000
     32 HN3         -2.6350    -0.4070     4.7880 hn         1 UPP       0.337500
     33 H5          -3.4230     2.7390     2.2030 ha         1 UPP       0.210000
     34 H6          -1.1700     2.2530     1.0480 h4         1 UPP       0.202000
     35 H1           0.4370     0.8480     0.6320 h2         1 UPP       0.067700
     36 H2B          1.3980     1.3650     3.3840 h1         1 UPP       0.053700
     37 HO2          3.4570     1.4370     1.8970 ho         1 UPP       0.524000
     38 H3B          2.1670    -0.9020     3.6120 h1         1 UPP       0.083700
     39 H4B          2.6030    -0.8050     0.5410 h1         1 UPP       0.073700
     40 HO3          4.3620    -0.8170     3.3560 ho         1 UPP       0.498000
     41 H5'1         3.4510    -2.8610     2.0810 h1         1 UPP       0.029200
     42 H5'2         1.7410    -3.2990     2.0680 h1         1 UPP       0.029200
     43 H2          -1.1820    -0.7440    -4.5980 ha         1 UPP       0.133500
     44 H3          -2.6760     0.8790    -5.7100 ha         1 UPP       0.078500
     45 H4          -2.9710     3.1660    -4.7690 ha         1 UPP       0.073000
     46 H7          -1.7550     3.8310    -2.6980 ha         1 UPP       0.078500
     47 H8          -0.2450     2.2010    -1.5680 ha         1 UPP       0.133500
@<TRIPOS>BOND
     1     1     2 1   
     2     1     6 1   
     3     1     9 1   
     4     2     3 1   
     5     2     7 2   
     6     3     4 1   
     7     3    32 1   
     8     4     5 1   
     9     4     8 2   
    10     5     6 2   
    11     5    33 1   
    12     6    34 1   
    13     9    10 1   
    14     9    14 1   
    15     9    35 1   
    16    10    11 1   
    17    10    12 1   
    18    10    36 1   
    19    11    37 1   
    20    12    13 1   
    21    12    15 1   
    22    12    38 1   
    23    13    14 1   
    24    13    16 1   
    25    13    39 1   
    26    15    40 1   
    27    16    17 1   
    28    16    41 1   
    29    16    42 1   
    30    17    18 1   
    31    18    19 1   
    32    18    20 1   
    33    18    21 1   
    34    21    22 1   
    35    22    23 1   
    36    22    24 1   
    37    22    25 1   
    38    25    26 1   
    39    26    27 ar  
    40    26    31 ar  
    41    27    28 ar  
    42    27    43 1   
    43    28    29 ar  
    44    28    44 1   
    45    29    30 ar  
    46    29    45 1   
    47    30    31 ar  
    48    30    46 1   
    49    31    47 1   
@<TRIPOS>SUBSTRUCTURE
     1 UPP         1 TEMP              0 ****  ****    0 ROOT
