@<TRIPOS>MOLECULE
UPQ
   24    25     1     0     0
SMALL
bcc


@<TRIPOS>ATOM
      1 C01         19.9190   -21.0680    -4.0570 c          1 UPQ       0.585500
      2 C02         19.0660   -21.4230    -2.9150 ca         1 UPQ      -0.209600
      3 C03         19.6100   -21.4200    -1.6340 ca         1 UPQ      -0.058000
      4 C04         18.8330   -21.7390    -0.5350 ca         1 UPQ      -0.158500
      5 C05         17.4970   -22.0820    -0.7180 ca         1 UPQ       0.043800
      6 C07         17.1190   -23.0240     1.5520 cc         1 UPQ      -0.252600
      7 C08         16.0140   -23.1190     2.3420 cd         1 UPQ       0.320600
      8 C09         15.9030   -23.7170     3.7000 c3         1 UPQ      -0.110400
      9 C11         15.3750   -22.1600     0.5410 cc         1 UPQ       0.412400
     10 C12         16.9450   -22.1020    -2.0000 ca         1 UPQ      -0.158500
     11 C13         17.7240   -21.7640    -3.0870 ca         1 UPQ      -0.058000
     12 N06         16.7030   -22.4120     0.3900 na         1 UPQ      -0.136000
     13 N10         14.9350   -22.5670     1.6960 nd         1 UPQ      -0.668000
     14 O1          19.5450   -21.0350    -5.2060 o          1 UPQ      -0.511100
     15 H1          20.9620   -20.8230    -3.7900 h4         1 UPQ      -0.008800
     16 H3          20.6510   -21.1530    -1.4900 ha         1 UPQ       0.148000
     17 H4          19.2620   -21.7050     0.4570 ha         1 UPQ       0.149000
     18 H5          18.1310   -23.3630     1.6970 h4         1 UPQ       0.178000
     19 H6          15.5410   -22.9870     4.4260 hc         1 UPQ       0.045033
     20 H7          15.2060   -24.5560     3.7110 hc         1 UPQ       0.045033
     21 H8          16.8690   -24.0810     4.0450 hc         1 UPQ       0.045033
     22 H9          14.7950   -21.6510    -0.2140 h5         1 UPQ       0.059100
     23 H10         15.9150   -22.3980    -2.1480 ha         1 UPQ       0.149000
     24 H11         17.2910   -21.7810    -4.0790 ha         1 UPQ       0.148000
@<TRIPOS>BOND
     1     1     2 1   
     2     1    14 2   
     3     1    15 1   
     4     2     3 ar  
     5     2    11 ar  
     6     3     4 ar  
     7     3    16 1   
     8     4     5 ar  
     9     4    17 1   
    10     5    10 ar  
    11     5    12 1   
    12     6     7 2   
    13     6    12 1   
    14     6    18 1   
    15     7     8 1   
    16     7    13 1   
    17     8    19 1   
    18     8    20 1   
    19     8    21 1   
    20     9    12 1   
    21     9    13 2   
    22     9    22 1   
    23    10    11 ar  
    24    10    23 1   
    25    11    24 1   
@<TRIPOS>SUBSTRUCTURE
     1 UPQ         1 TEMP              0 ****  ****    0 ROOT
