@<TRIPOS>MOLECULE
UPQ
   24    25     1     0     0
SMALL
No Charge or Current Charge


@<TRIPOS>ATOM
      1 C01         19.9510   -21.0690    -4.1020 c          1 UPQ       0.585500
      2 C02         19.0840   -21.4220    -2.9220 ca         1 UPQ      -0.209600
      3 C03         19.6250   -21.3890    -1.6220 ca         1 UPQ      -0.040000
      4 C04         18.8260   -21.7170    -0.5130 ca         1 UPQ      -0.140500
      5 C05         17.4750   -22.0810    -0.6840 ca         1 UPQ       0.043800
      6 C07         17.1290   -23.0450     1.5530 cc         1 UPQ      -0.220000
      7 C08         16.0080   -23.1260     2.3410 cd         1 UPQ       0.255300
      8 C09         15.8990   -23.7400     3.7070 c3         1 UPQ      -0.110400
      9 C11         15.3430   -22.1170     0.5420 cc         1 UPQ       0.412400
     10 C12         16.9370   -22.1120    -1.9870 ca         1 UPQ      -0.140500
     11 C13         17.7330   -21.7860    -3.0980 ca         1 UPQ      -0.040000
     12 N06         16.6830   -22.4050     0.4220 na         1 UPQ      -0.085300
     13 N10         14.9080   -22.5540     1.7200 nd         1 UPQ      -0.668000
     14 O1          19.5490   -21.0750    -5.2610 o          1 UPQ      -0.511100
     15 H1          21.0040   -20.7940    -3.8670 h4         1 UPQ      -0.008800
     16 H3          20.6660   -21.1080    -1.4660 ha         1 UPQ       0.130000
     17 H4          19.2630   -21.6750     0.4820 ha         1 UPQ       0.131000
     18 H5          18.1440   -23.3860     1.7080 h4         1 UPQ       0.160000
     19 H6          15.5720   -22.9990     4.4450 hc         1 UPQ       0.045033
     20 H7          15.1770   -24.5650     3.7100 hc         1 UPQ       0.045033
     21 H8          16.8650   -24.1390     4.0380 hc         1 UPQ       0.045033
     22 H9          14.7690   -21.6020    -0.2190 h5         1 UPQ       0.059100
     23 H10         15.9010   -22.4010    -2.1500 ha         1 UPQ       0.131000
     24 H11         17.2970   -21.8200    -4.0950 ha         1 UPQ       0.130000
@<TRIPOS>BOND
     1     1     2 1   
     2     1    14 2   
     3     1    15 1   
     4     2     3 ar  
     5     2    11 ar  
     6     3     4 ar  
     7     3    16 1   
     8     4     5 ar  
     9     4    17 1   
    10     5    10 ar  
    11     5    12 1   
    12     6     7 2   
    13     6    12 1   
    14     6    18 1   
    15     7     8 1   
    16     7    13 1   
    17     8    19 1   
    18     8    20 1   
    19     8    21 1   
    20     9    12 1   
    21     9    13 2   
    22     9    22 1   
    23    10    11 ar  
    24    10    23 1   
    25    11    24 1   
@<TRIPOS>SUBSTRUCTURE
     1 UPQ         1 TEMP              0 ****  ****    0 ROOT
