@<TRIPOS>MOLECULE
UPT
   31    33     1     0     0
SMALL
abcg2


@<TRIPOS>ATOM
      1 S           -4.1250    -1.0620    -1.1070 s          1 UPT      -0.495000
      2 P           -2.8690    -1.0010     0.3310 p5         1 UPT       1.135200
      3 O           -2.6080     0.4160     1.0630 os         1 UPT      -0.300400
      4 O5          -3.1760    -1.9520     1.5690 oh         1 UPT      -0.494400
      5 O6          -1.3310    -1.2770    -0.0860 os         1 UPT      -0.310400
      6 C1          -0.4190    -0.3800     0.5330 c5         1 UPT      -0.094700
      7 C2          -1.2540     0.8260     0.9890 c5         1 UPT      -0.085700
      8 C3          -1.0000     1.8610    -0.1100 c5         1 UPT       0.147300
      9 C4          -1.1270     3.2850     0.3680 c3         1 UPT       0.177600
     10 O2          -0.9160     4.1470    -0.7190 oh         1 UPT      -0.699000
     11 O1           0.3330     1.5980    -0.5070 os         1 UPT      -0.432000
     12 C            0.5480     0.2120    -0.5110 c5         1 UPT       0.327700
     13 N            1.9420    -0.0200    -0.2070 n          1 UPT      -0.316000
     14 C8           2.7220    -0.7400    -1.0960 c          1 UPT       0.629000
     15 O4           2.2910    -1.2110    -2.1260 o          1 UPT      -0.535000
     16 N1           4.0280    -0.8820    -0.7140 ns         1 UPT      -0.468500
     17 C7           4.6450    -0.3970     0.4300 c          1 UPT       0.589200
     18 O3           5.8240    -0.6080     0.6340 o          1 UPT      -0.512000
     19 C5           3.7560     0.3450     1.2940 cc         1 UPT      -0.364200
     20 C6           2.4730     0.5020     0.9430 cd         1 UPT      -0.003400
     21 H2           0.0940    -0.8930     1.3480 h1         1 UPT       0.104700
     22 H3          -0.9470     1.1890     1.9710 h1         1 UPT       0.109700
     23 H4          -1.6950     1.6870    -0.9440 h1         1 UPT       0.090700
     24 H5          -2.1290     3.4000     0.8010 h1         1 UPT       0.034200
     25 H6          -0.4050     3.4540     1.1780 h1         1 UPT       0.034200
     26 H7          -0.9870     5.0520    -0.4020 ho         1 UPT       0.514000
     27 H8           0.3460    -0.2290    -1.4900 h2         1 UPT       0.136700
     28 H9           4.6070    -1.4120    -1.3550 hn         1 UPT       0.348500
     29 H10          4.1330     0.7720     2.2100 ha         1 UPT       0.225000
     30 H11          1.7950     1.0650     1.5680 h4         1 UPT       0.202000
     31 H1          -3.8220    -2.6470     1.3830 ho         1 UPT       0.303000
@<TRIPOS>BOND
     1     1     2 2   
     2     2     3 1   
     3     2     4 1   
     4     2     5 1   
     5     3     7 1   
     6     4    31 1   
     7     5     6 1   
     8     6     7 1   
     9     6    12 1   
    10     6    21 1   
    11     7     8 1   
    12     7    22 1   
    13     8     9 1   
    14     8    11 1   
    15     8    23 1   
    16     9    10 1   
    17     9    24 1   
    18     9    25 1   
    19    10    26 1   
    20    11    12 1   
    21    12    13 1   
    22    12    27 1   
    23    13    14 1   
    24    13    20 1   
    25    14    15 2   
    26    14    16 1   
    27    16    17 1   
    28    16    28 1   
    29    17    18 2   
    30    17    19 1   
    31    19    20 2   
    32    19    29 1   
    33    20    30 1   
@<TRIPOS>SUBSTRUCTURE
     1 UPT         1 TEMP              0 ****  ****    0 ROOT
