@<TRIPOS>MOLECULE
UPT
   31    33     1     0     0
SMALL
No Charge or Current Charge


@<TRIPOS>ATOM
      1 S           -2.8200    -0.8580    -1.7980 s          1 UPT      -0.495000
      2 P           -2.5110    -1.0230     0.1230 p5         1 UPT       1.135200
      3 O           -2.6500     0.2950     1.0420 os         1 UPT      -0.300400
      4 O5          -3.4020    -2.0880     0.9280 oh         1 UPT      -0.494400
      5 O6          -1.0260    -1.3930     0.6250 os         1 UPT      -0.310400
      6 C1          -0.2790    -0.1940     0.9640 c5         1 UPT      -0.094700
      7 C2          -1.3590     0.9310     1.2360 c5         1 UPT      -0.085700
      8 C3          -1.1210     1.9650     0.0830 c5         1 UPT       0.147300
      9 C4          -1.3670     3.4460     0.4870 c3         1 UPT       0.177600
     10 O2          -1.3220     4.3160    -0.6600 oh         1 UPT      -0.699000
     11 O1           0.2560     1.7520    -0.2800 os         1 UPT      -0.432000
     12 C            0.4690     0.3340    -0.3060 c5         1 UPT       0.327700
     13 N            1.9030    -0.0020    -0.1330 n          1 UPT      -0.316000
     14 C8           2.4200    -1.0980    -0.8500 c          1 UPT       0.629000
     15 O4           1.7500    -1.7770    -1.6110 o          1 UPT      -0.535000
     16 N1           3.7380    -1.3760    -0.6520 ns         1 UPT      -0.468500
     17 C7           4.6200    -0.7290     0.1520 c          1 UPT       0.589200
     18 O3           5.7840    -1.0730     0.2480 o          1 UPT      -0.512000
     19 C5           4.0330     0.3970     0.8750 cc         1 UPT      -0.364200
     20 C6           2.7090     0.7430     0.7290 cd         1 UPT      -0.003400
     21 H2           0.3780    -0.3770     1.8260 h1         1 UPT       0.104700
     22 H3          -1.2850     1.3680     2.2430 h1         1 UPT       0.109700
     23 H4          -1.7500     1.7440    -0.7910 h1         1 UPT       0.090700
     24 H5          -2.3510     3.5130     0.9690 h1         1 UPT       0.034200
     25 H6          -0.6130     3.7410     1.2290 h1         1 UPT       0.034200
     26 H7          -1.4190     5.2380    -0.3250 ho         1 UPT       0.514000
     27 H8           0.0940    -0.1010    -1.2430 h2         1 UPT       0.136700
     28 H9           4.1030    -2.1600    -1.1680 hn         1 UPT       0.348500
     29 H10          4.7050     0.9390     1.5300 ha         1 UPT       0.225000
     30 H11          2.2150     1.5680     1.2390 h4         1 UPT       0.202000
     31 H1          -3.1750    -2.9440     0.5290 ho         1 UPT       0.303000
@<TRIPOS>BOND
     1     1     2 2   
     2     2     3 1   
     3     2     4 1   
     4     2     5 1   
     5     3     7 1   
     6     4    31 1   
     7     5     6 1   
     8     6     7 1   
     9     6    12 1   
    10     6    21 1   
    11     7     8 1   
    12     7    22 1   
    13     8     9 1   
    14     8    11 1   
    15     8    23 1   
    16     9    10 1   
    17     9    24 1   
    18     9    25 1   
    19    10    26 1   
    20    11    12 1   
    21    12    13 1   
    22    12    27 1   
    23    13    14 1   
    24    13    20 1   
    25    14    15 2   
    26    14    16 1   
    27    16    17 1   
    28    16    28 1   
    29    17    18 2   
    30    17    19 1   
    31    19    20 2   
    32    19    29 1   
    33    20    30 1   
@<TRIPOS>SUBSTRUCTURE
     1 UPT         1 TEMP              0 ****  ****    0 ROOT
