@<TRIPOS>MOLECULE
UPU
   59    62     1     0     0
SMALL
No Charge or Current Charge


@<TRIPOS>ATOM
      1 O2A          2.3990     2.2730    -2.3930 o          1 UPU      -0.565000
      2 C2A          2.2930     2.2400    -1.1790 c          1 UPU       0.619000
      3 N3A          2.2940     3.3920    -0.4560 ns         1 UPU      -0.485500
      4 C4A          2.1880     3.5390     0.8890 c          1 UPU       0.584200
      5 O4A          2.2050     4.6300     1.4270 o          1 UPU      -0.554000
      6 C5A          2.0450     2.2740     1.6000 cc         1 UPU      -0.392200
      7 C6A          2.0360     1.0640     0.9450 cd         1 UPU       0.025600
      8 N1A          2.1680     1.0460    -0.4460 n          1 UPU      -0.313000
      9 C1'A         2.1510    -0.2360    -1.1980 c5         1 UPU       0.343700
     10 O4'A         1.3130    -1.2090    -0.5450 os         1 UPU      -0.432000
     11 C2'A         3.5880    -0.8540    -1.1420 c5         1 UPU       0.069300
     12 O2'A         4.5360    -0.2980    -2.0800 oh         1 UPU      -0.700000
     13 C3'A         3.2190    -2.3140    -1.5240 c5         1 UPU       0.105300
     14 O3'A         2.9910    -2.4040    -2.9360 oh         1 UPU      -0.708000
     15 C4'A         1.9190    -2.5260    -0.6710 c5         1 UPU       0.138300
     16 C5'A         2.2190    -3.1060     0.7400 c3         1 UPU       0.215600
     17 O5'A         0.9920    -3.4810     1.3940 os         1 UPU      -0.597400
     18 P            0.5200    -2.7450     2.7490 p5         1 UPU       1.400800
     19 O1          -0.4600    -3.5870     3.4940 o          1 UPU      -0.810500
     20 O2           1.6880    -2.3900     3.6050 o          1 UPU      -0.810500
     21 O3'B        -0.1800    -1.4250     2.1350 os         1 UPU      -0.582400
     22 C3'B        -1.6040    -1.4970     1.8240 c5         1 UPU       0.218300
     23 C4'B        -1.7990    -2.1540     0.4010 c5         1 UPU       0.136300
     24 C5'B        -3.0320    -3.0960     0.3250 c3         1 UPU       0.145600
     25 O5'B        -3.0520    -3.8430    -0.9060 oh         1 UPU      -0.706000
     26 O4'B        -1.9850    -1.0420    -0.5260 os         1 UPU      -0.431000
     27 C2'B        -2.1610    -0.0530     1.6030 c5         1 UPU       0.120300
     28 O2'B        -1.7480     0.9170     2.5920 oh         1 UPU      -0.668000
     29 C1'B        -1.6110     0.1610     0.1680 c5         1 UPU       0.304700
     30 N1B         -2.2140     1.4050    -0.3910 n          1 UPU      -0.308000
     31 C2B         -3.5220     1.4010    -0.9330 c          1 UPU       0.619000
     32 O2B         -4.2860     0.4520    -0.8930 o          1 UPU      -0.556000
     33 C6B         -1.4320     2.5610    -0.4090 cc         1 UPU       0.030600
     34 C5B         -1.9300     3.7020    -0.9900 cd         1 UPU      -0.405200
     35 C4B         -3.2620     3.7450    -1.5900 c          1 UPU       0.595200
     36 N3B         -3.9340     2.5710    -1.4950 ns         1 UPU      -0.476500
     37 O4B         -3.7400     4.7320    -2.1210 o          1 UPU      -0.553000
     38 HN3A         2.3930     4.2430    -0.9860 hn         1 UPU       0.326500
     39 H5A          1.9450     2.3500     2.6780 ha         1 UPU       0.241000
     40 H6A          1.9250     0.0920     1.4280 h4         1 UPU       0.266000
     41 H1'A         1.8120    -0.0630    -2.2270 h2         1 UPU       0.111700
     42 H2AC         3.9890    -0.8140    -0.1180 h1         1 UPU       0.067700
     43 H2AO         4.7610     0.6140    -1.7760 ho         1 UPU       0.506000
     44 H3AC         4.0140    -3.0130    -1.2280 h1         1 UPU       0.051700
     45 H3AO         3.6400    -1.7630    -3.3190 ho         1 UPU       0.512000
     46 H4'A         1.2220    -3.2030    -1.1820 h1         1 UPU       0.096700
     47 H'A1         2.8560    -3.9920     0.6260 h1         1 UPU       0.035200
     48 H'A2         2.7870    -2.3650     1.3170 h1         1 UPU       0.035200
     49 H3BC        -2.1530    -2.0190     2.6200 h1         1 UPU       0.083700
     50 H4'B        -0.9140    -2.7220     0.0940 h1         1 UPU       0.104700
     51 H'B1        -2.9930    -3.7890     1.1760 h1         1 UPU       0.029200
     52 H'B2        -3.9470    -2.4960     0.4280 h1         1 UPU       0.029200
     53 H5'B        -3.8970    -4.3480    -0.9250 ho         1 UPU       0.490000
     54 H2BC        -3.2590    -0.0950     1.5740 h1         1 UPU       0.054700
     55 H2BO        -2.2360     1.7510     2.4080 ho         1 UPU       0.491000
     56 H1'B        -0.5210     0.2760     0.1740 h2         1 UPU       0.084700
     57 H6B         -0.4580     2.4510     0.0600 h4         1 UPU       0.214000
     58 H5B         -1.3680     4.6270    -1.0370 ha         1 UPU       0.219000
     59 HN3B        -4.8630     2.5650    -1.8820 hn         1 UPU       0.330500
@<TRIPOS>BOND
     1     1     2 2   
     2     2     3 1   
     3     2     8 1   
     4     3     4 1   
     5     3    38 1   
     6     4     5 2   
     7     4     6 1   
     8     6     7 2   
     9     6    39 1   
    10     7     8 1   
    11     7    40 1   
    12     8     9 1   
    13     9    10 1   
    14     9    11 1   
    15     9    41 1   
    16    10    15 1   
    17    11    12 1   
    18    11    13 1   
    19    11    42 1   
    20    12    43 1   
    21    13    14 1   
    22    13    15 1   
    23    13    44 1   
    24    14    45 1   
    25    15    16 1   
    26    15    46 1   
    27    16    17 1   
    28    16    47 1   
    29    16    48 1   
    30    17    18 1   
    31    18    19 1   
    32    18    20 1   
    33    18    21 1   
    34    21    22 1   
    35    22    23 1   
    36    22    27 1   
    37    22    49 1   
    38    23    24 1   
    39    23    26 1   
    40    23    50 1   
    41    24    25 1   
    42    24    51 1   
    43    24    52 1   
    44    25    53 1   
    45    26    29 1   
    46    27    28 1   
    47    27    29 1   
    48    27    54 1   
    49    28    55 1   
    50    29    30 1   
    51    29    56 1   
    52    30    31 1   
    53    30    33 1   
    54    31    32 2   
    55    31    36 1   
    56    33    34 2   
    57    33    57 1   
    58    34    35 1   
    59    34    58 1   
    60    35    36 1   
    61    35    37 2   
    62    36    59 1   
@<TRIPOS>SUBSTRUCTURE
     1 UPU         1 TEMP              0 ****  ****    0 ROOT
