@<TRIPOS>MOLECULE
UPU
   59    62     1     0     0
SMALL
abcg2


@<TRIPOS>ATOM
      1 O2A          2.2330     1.9720    -2.4510 o          1 UPU      -0.565000
      2 C2A          2.1720     1.9450    -1.2410 c          1 UPU       0.619000
      3 N3A          1.9800     3.0850    -0.5010 ns         1 UPU      -0.485500
      4 C4A          1.9330     3.2140     0.8830 c          1 UPU       0.584200
      5 O4A          1.8040     4.3100     1.3950 o          1 UPU      -0.554000
      6 C5A          2.0370     1.9540     1.5720 cc         1 UPU      -0.392200
      7 C6A          2.2070     0.8210     0.8720 cd         1 UPU       0.025600
      8 N1A          2.2760     0.7880    -0.4930 n          1 UPU      -0.313000
      9 C1'A         2.4740    -0.4790    -1.1850 c5         1 UPU       0.343700
     10 O4'A         1.5980    -1.4300    -0.6610 os         1 UPU      -0.432000
     11 C2'A         3.8680    -1.0750    -1.0160 c5         1 UPU       0.069300
     12 O2'A         4.7640    -0.4610    -1.8910 oh         1 UPU      -0.700000
     13 C3'A         3.5760    -2.5500    -1.3090 c5         1 UPU       0.105300
     14 O3'A         3.4270    -2.7680    -2.6880 oh         1 UPU      -0.708000
     15 C4'A         2.2190    -2.7200    -0.6290 c5         1 UPU       0.138300
     16 C5'A         2.3750    -3.2190     0.7950 c3         1 UPU       0.215600
     17 O5'A         1.1370    -3.3080     1.4640 os         1 UPU      -0.597400
     18 P            0.7280    -2.3130     2.7100 p5         1 UPU       1.400800
     19 O1          -0.1380    -3.1390     3.6070 o          1 UPU      -0.810500
     20 O2           1.9480    -1.5940     3.1990 o          1 UPU      -0.810500
     21 O3'B        -0.1830    -1.1590     1.9880 os         1 UPU      -0.582400
     22 C3'B        -1.5350    -1.3510     1.6630 c5         1 UPU       0.218300
     23 C4'B        -1.7170    -1.7810     0.2040 c5         1 UPU       0.136300
     24 C5'B        -2.9730    -2.6010    -0.0030 c3         1 UPU       0.145600
     25 O5'B        -3.0860    -2.9080    -1.3720 oh         1 UPU      -0.706000
     26 O4'B        -1.7630    -0.5710    -0.5620 os         1 UPU      -0.431000
     27 C2'B        -2.2120     0.0160     1.6620 c5         1 UPU       0.120300
     28 O2'B        -1.8020     0.8270     2.7180 oh         1 UPU      -0.668000
     29 C1'B        -1.7580     0.5280     0.2910 c5         1 UPU       0.304700
     30 N1B         -2.5270     1.6230    -0.2880 n          1 UPU      -0.308000
     31 C2B         -3.8780     1.4800    -0.5550 c          1 UPU       0.619000
     32 O2B         -4.5110     0.4810    -0.2950 o          1 UPU      -0.556000
     33 C6B         -1.8780     2.7790    -0.6260 cc         1 UPU       0.030600
     34 C5B         -2.4710     3.8360    -1.1980 cd         1 UPU      -0.405200
     35 C4B         -3.8790     3.7760    -1.5020 c          1 UPU       0.595200
     36 N3B         -4.4640     2.5710    -1.1440 ns         1 UPU      -0.476500
     37 O4B         -4.5380     4.6560    -2.0220 o          1 UPU      -0.553000
     38 HN3A         1.9370     3.9410    -1.0410 hn         1 UPU       0.326500
     39 H5A          1.9820     1.9240     2.6490 ha         1 UPU       0.241000
     40 H6A          2.2810    -0.1250     1.3890 h4         1 UPU       0.266000
     41 H1'A         2.2760    -0.2860    -2.2410 h2         1 UPU       0.111700
     42 H2AC         4.1910    -0.9760     0.0300 h1         1 UPU       0.067700
     43 H2AO         5.6620    -0.6540    -1.6020 ho         1 UPU       0.506000
     44 H3AC         4.3370    -3.2130    -0.8750 h1         1 UPU       0.051700
     45 H3AO         4.1720    -2.3500    -3.1370 ho         1 UPU       0.512000
     46 H4'A         1.5900    -3.4170    -1.1910 h1         1 UPU       0.096700
     47 H'A1         2.8080    -4.2230     0.7440 h1         1 UPU       0.035200
     48 H'A2         3.0820    -2.5930     1.3490 h1         1 UPU       0.035200
     49 H3BC        -2.0160    -2.0470     2.3580 h1         1 UPU       0.083700
     50 H4'B        -0.8560    -2.3610    -0.1320 h1         1 UPU       0.104700
     51 H'B1        -2.8770    -3.5080     0.6090 h1         1 UPU       0.029200
     52 H'B2        -3.8500    -2.0570     0.3640 h1         1 UPU       0.029200
     53 H5'B        -3.9000    -3.4020    -1.4980 ho         1 UPU       0.490000
     54 H2BC        -3.2930    -0.1440     1.6690 h1         1 UPU       0.054700
     55 H2BO        -2.4980     1.4660     2.8970 ho         1 UPU       0.491000
     56 H1'B        -0.7440     0.9320     0.4120 h2         1 UPU       0.084700
     57 H6B         -0.8220     2.7960    -0.3960 h4         1 UPU       0.214000
     58 H5B         -1.9050     4.7220    -1.4410 ha         1 UPU       0.219000
     59 HN3B        -5.4530     2.4700    -1.3370 hn         1 UPU       0.330500
@<TRIPOS>BOND
     1     1     2 2   
     2     2     3 1   
     3     2     8 1   
     4     3     4 1   
     5     3    38 1   
     6     4     5 2   
     7     4     6 1   
     8     6     7 2   
     9     6    39 1   
    10     7     8 1   
    11     7    40 1   
    12     8     9 1   
    13     9    10 1   
    14     9    11 1   
    15     9    41 1   
    16    10    15 1   
    17    11    12 1   
    18    11    13 1   
    19    11    42 1   
    20    12    43 1   
    21    13    14 1   
    22    13    15 1   
    23    13    44 1   
    24    14    45 1   
    25    15    16 1   
    26    15    46 1   
    27    16    17 1   
    28    16    47 1   
    29    16    48 1   
    30    17    18 1   
    31    18    19 1   
    32    18    20 1   
    33    18    21 1   
    34    21    22 1   
    35    22    23 1   
    36    22    27 1   
    37    22    49 1   
    38    23    24 1   
    39    23    26 1   
    40    23    50 1   
    41    24    25 1   
    42    24    51 1   
    43    24    52 1   
    44    25    53 1   
    45    26    29 1   
    46    27    28 1   
    47    27    29 1   
    48    27    54 1   
    49    28    55 1   
    50    29    30 1   
    51    29    56 1   
    52    30    31 1   
    53    30    33 1   
    54    31    32 2   
    55    31    36 1   
    56    33    34 2   
    57    33    57 1   
    58    34    35 1   
    59    34    58 1   
    60    35    36 1   
    61    35    37 2   
    62    36    59 1   
@<TRIPOS>SUBSTRUCTURE
     1 UPU         1 TEMP              0 ****  ****    0 ROOT
