@<TRIPOS>MOLECULE
UPX
   47    50     1     0     0
SMALL
bcc


@<TRIPOS>ATOM
      1 OBB         -6.5010     3.2040     0.9800 o          1 UPX      -0.225000
      2 NAB         -5.6760     2.3380     0.8110 no         1 UPX       0.329200
      3 OBC         -4.5260     2.4240     1.1920 o          1 UPX      -0.225000
      4 CAJ         -6.0590     1.1350     0.1250 ca         1 UPX      -0.214200
      5 CAI         -7.3620     0.9790    -0.3150 ca         1 UPX      -0.017000
      6 CAH         -7.7570    -0.1810    -0.9800 ca         1 UPX      -0.186000
      7 CAM         -6.8580    -1.2060    -1.2120 ca         1 UPX      -0.009000
      8 CAL         -5.5410    -1.0700    -0.7750 ca         1 UPX      -0.139800
      9 CAO         -4.4050    -1.9240    -0.8400 cc         1 UPX      -0.094200
     10 CAK         -5.1290     0.1110    -0.1100 ca         1 UPX       0.019800
     11 NAA         -3.8150    -0.0220     0.1830 na         1 UPX      -0.140400
     12 CAN         -3.3750    -1.2540    -0.2480 cd         1 UPX      -0.148300
     13 CAP         -1.9900    -1.7460    -0.1000 c          1 UPX       0.706300
     14 OBD         -1.7540    -2.9390    -0.1450 o          1 UPX      -0.559100
     15 NAC         -1.0510    -0.7800     0.0650 ns         1 UPX      -0.470100
     16 CAQ          0.3280    -0.9470     0.2370 ca         1 UPX       0.068600
     17 CAV          1.1430     0.1540    -0.0430 ca         1 UPX      -0.165500
     18 CAU          2.5100     0.0850     0.1220 ca         1 UPX      -0.081500
     19 CAR          0.9230    -2.1180     0.6970 ca         1 UPX      -0.165500
     20 CAS          2.3000    -2.1720     0.8610 ca         1 UPX      -0.081500
     21 CAT          3.1260    -1.0850     0.5800 ca         1 UPX      -0.129900
     22 CAW          4.5900    -1.1670     0.7420 ce         1 UPX       0.362900
     23 CAX          5.1800    -2.3430     1.4650 c3         1 UPX      -0.161400
     24 NAD          5.2620    -0.2090     0.2240 n2         1 UPX      -0.350400
     25 NAE          6.5910    -0.1910     0.2890 nu         1 UPX      -0.576000
     26 CAY          7.2730     0.8470    -0.2900 cc         1 UPX       0.679400
     27 NAF          8.6230     0.8820    -0.2800 na         1 UPX      -0.345900
     28 CAZ          9.0010     2.0410    -0.9200 cc         1 UPX      -0.273600
     29 CBA          7.8380     2.6410    -1.2810 cd         1 UPX       0.318200
     30 NAG          6.7560     1.8900    -0.8840 nd         1 UPX      -0.683000
     31 HAI         -8.0860     1.7620    -0.1420 ha         1 UPX       0.167000
     32 HAH         -8.7810    -0.2720    -1.3120 ha         1 UPX       0.148000
     33 HAM         -7.1730    -2.1060    -1.7240 ha         1 UPX       0.147000
     34 HAO         -4.3550    -2.9010    -1.2940 ha         1 UPX       0.179000
     35 HAA         -3.2990     0.6290     0.7520 hn         1 UPX       0.332700
     36 HAC         -1.3330     0.1720    -0.1140 hn         1 UPX       0.320500
     37 HAV          0.6980     1.0760    -0.3980 ha         1 UPX       0.146000
     38 HAR          0.3350    -2.9890     0.9360 ha         1 UPX       0.146000
     39 HAU          3.1120     0.9530    -0.1090 ha         1 UPX       0.146500
     40 HAS          2.7210    -3.1050     1.2130 ha         1 UPX       0.146500
     41 HAX1         5.2820    -3.2070     0.8040 hc         1 UPX       0.047033
     42 HAX2         6.1640    -2.1330     1.8830 hc         1 UPX       0.047033
     43 HAX3         4.5530    -2.6460     2.3020 hc         1 UPX       0.047033
     44 HAE          7.1180    -0.9750     0.6490 hn         1 UPX       0.427800
     45 HAF          9.2440     0.1960     0.1180 hn         1 UPX       0.295700
     46 HAZ         10.0340     2.3130    -1.0490 h4         1 UPX       0.176000
     47 HBA          7.7100     3.5750    -1.8060 h4         1 UPX       0.038100
@<TRIPOS>BOND
     1     1     2 1   
     2     2     3 1   
     3     2     4 1   
     4     4     5 ar  
     5     4    10 ar  
     6     5     6 ar  
     7     5    31 1   
     8     6     7 ar  
     9     6    32 1   
    10     7     8 ar  
    11     7    33 1   
    12     8     9 1   
    13     8    10 ar  
    14     9    12 2   
    15     9    34 1   
    16    10    11 1   
    17    11    12 1   
    18    11    35 1   
    19    12    13 1   
    20    13    14 2   
    21    13    15 1   
    22    15    16 1   
    23    15    36 1   
    24    16    17 ar  
    25    16    19 ar  
    26    17    18 ar  
    27    17    37 1   
    28    18    21 ar  
    29    18    39 1   
    30    19    20 ar  
    31    19    38 1   
    32    20    21 ar  
    33    20    40 1   
    34    21    22 1   
    35    22    23 1   
    36    22    24 2   
    37    23    41 1   
    38    23    42 1   
    39    23    43 1   
    40    24    25 1   
    41    25    26 1   
    42    25    44 1   
    43    26    27 1   
    44    26    30 2   
    45    27    28 1   
    46    27    45 1   
    47    28    29 2   
    48    28    46 1   
    49    29    30 1   
    50    29    47 1   
@<TRIPOS>SUBSTRUCTURE
     1 UPX         1 TEMP              0 ****  ****    0 ROOT
