@<TRIPOS>MOLECULE
UPX
   47    50     1     0     0
SMALL
No Charge or Current Charge


@<TRIPOS>ATOM
      1 OBB         -6.3960     3.6100    -0.2320 o          1 UPX      -0.415000
      2 NAB         -5.5740     2.6860    -0.1840 no         1 UPX       0.709200
      3 OBC         -4.3550     2.8670    -0.0590 o          1 UPX      -0.415000
      4 CAJ         -6.0880     1.2790    -0.2830 ca         1 UPX      -0.214200
      5 CAI         -7.4810     1.0400    -0.4270 ca         1 UPX       0.001000
      6 CAH         -7.9850    -0.2780    -0.5210 ca         1 UPX      -0.168000
      7 CAM         -7.1120    -1.3810    -0.4740 ca         1 UPX       0.009000
      8 CAL         -5.7450    -1.1220    -0.3320 ca         1 UPX      -0.139800
      9 CAO         -4.6470    -2.0360    -0.2560 cc         1 UPX      -0.144200
     10 CAK         -5.2390     0.1470    -0.2390 ca         1 UPX       0.019800
     11 NAA         -3.8560     0.0990    -0.1050 na         1 UPX      -0.190700
     12 CAN         -3.4880    -1.2790    -0.1160 cd         1 UPX      -0.148300
     13 CAP         -2.1270    -1.8920    -0.0040 c          1 UPX       0.639300
     14 OBD         -1.9460    -3.1040    -0.0280 o          1 UPX      -0.559100
     15 NAC         -1.1150    -0.9480     0.1330 ns         1 UPX      -0.144000
     16 CAQ          0.2980    -1.0700     0.2500 ca         1 UPX      -0.024000
     17 CAV          1.0360     0.1010     0.4950 ca         1 UPX      -0.147500
     18 CAU          2.4350     0.0590     0.6200 ca         1 UPX      -0.063500
     19 CAR          0.9920    -2.2910     0.1130 ca         1 UPX      -0.147500
     20 CAS          2.3920    -2.3340     0.2380 ca         1 UPX      -0.063500
     21 CAT          3.1320    -1.1650     0.5180 ca         1 UPX      -0.129900
     22 CAW          4.6310    -1.2060     0.6050 ce         1 UPX       0.362900
     23 CAX          5.2810    -2.4280     1.2490 c3         1 UPX      -0.161400
     24 NAD          5.3090    -0.1490     0.2470 n2         1 UPX      -0.350400
     25 NAE          6.6870    -0.1460     0.1450 nu         1 UPX      -0.631200
     26 CAY          7.4480     0.9410    -0.2220 cc         1 UPX       0.679400
     27 NAF          8.8090     0.9060    -0.3150 na         1 UPX      -0.345500
     28 CAZ          9.2290     2.1640    -0.7030 cc         1 UPX      -0.241000
     29 CBA          8.0760     2.9020    -0.8240 cd         1 UPX       0.252900
     30 NAG          6.9710     2.1310    -0.5220 nd         1 UPX      -0.683000
     31 HAI         -8.1860     1.8700    -0.4670 ha         1 UPX       0.149000
     32 HAH         -9.0540    -0.4410    -0.6310 ha         1 UPX       0.130000
     33 HAM         -7.4880    -2.4000    -0.5460 ha         1 UPX       0.129000
     34 HAO         -4.6920    -3.1240    -0.2980 ha         1 UPX       0.229000
     35 HAA         -3.2460     0.9070    -0.0200 hn         1 UPX       0.383000
     36 HAC         -1.4390     0.0070     0.1520 hn         1 UPX       0.154000
     37 HAV          0.5240     1.0570     0.5910 ha         1 UPX       0.128000
     38 HAR          0.4710    -3.2170    -0.1040 ha         1 UPX       0.128000
     39 HAU          2.9750     0.9850     0.8090 ha         1 UPX       0.128500
     40 HAS          2.9000    -3.2870     0.1030 ha         1 UPX       0.128500
     41 HAX1         5.8250    -3.0230     0.5070 hc         1 UPX       0.047033
     42 HAX2         5.9890    -2.1340     2.0330 hc         1 UPX       0.047033
     43 HAX3         4.5460    -3.0840     1.7280 hc         1 UPX       0.047033
     44 HAE          7.2550    -0.9740     0.3360 hn         1 UPX       0.483000
     45 HAF          9.3870     0.0970    -0.1300 hn         1 UPX       0.346000
     46 HAZ         10.2660     2.4370    -0.8590 h4         1 UPX       0.158000
     47 HBA          7.9830     3.9430    -1.1120 h4         1 UPX       0.038100
@<TRIPOS>BOND
     1     1     2 1   
     2     2     3 1   
     3     2     4 1   
     4     4     5 ar  
     5     4    10 ar  
     6     5     6 ar  
     7     5    31 1   
     8     6     7 ar  
     9     6    32 1   
    10     7     8 ar  
    11     7    33 1   
    12     8     9 1   
    13     8    10 ar  
    14     9    12 2   
    15     9    34 1   
    16    10    11 1   
    17    11    12 1   
    18    11    35 1   
    19    12    13 1   
    20    13    14 2   
    21    13    15 1   
    22    15    16 1   
    23    15    36 1   
    24    16    17 ar  
    25    16    19 ar  
    26    17    18 ar  
    27    17    37 1   
    28    18    21 ar  
    29    18    39 1   
    30    19    20 ar  
    31    19    38 1   
    32    20    21 ar  
    33    20    40 1   
    34    21    22 1   
    35    22    23 1   
    36    22    24 2   
    37    23    41 1   
    38    23    42 1   
    39    23    43 1   
    40    24    25 1   
    41    25    26 1   
    42    25    44 1   
    43    26    27 1   
    44    26    30 2   
    45    27    28 1   
    46    27    45 1   
    47    28    29 2   
    48    28    46 1   
    49    29    30 1   
    50    29    47 1   
@<TRIPOS>SUBSTRUCTURE
     1 UPX         1 TEMP              0 ****  ****    0 ROOT
