@<TRIPOS>MOLECULE
UPZ
   27    28     1     0     0
SMALL
abcg2


@<TRIPOS>ATOM
      1 C2         -24.3520    12.0210     7.6840 cc         1 UPZ       0.492500
      2 C3         -25.4820    11.0240     5.3890 cd         1 UPZ      -0.318600
      3 N6         -24.3690    12.8110     6.5930 nc         1 UPZ      -0.687000
      4 C8         -24.9190    12.3200     5.5060 cd         1 UPZ       0.460900
      5 C9         -24.1200    11.0350     9.7180 c          1 UPZ       0.554200
      6 C10        -26.1080    10.6030     4.1180 c          1 UPZ       0.633700
      7 C15        -26.3610    11.1480     1.8140 c3         1 UPZ       0.170600
      8 C16        -25.8170    12.1690     0.8450 c3         1 UPZ      -0.098100
      9 C4         -25.4390    10.1870     6.5060 cc         1 UPZ       0.100700
     10 C5         -23.8600    12.2130     8.9510 cd         1 UPZ      -0.395200
     11 N1         -24.9050    10.7310     7.6110 na         1 UPZ      -0.087800
     12 N7         -24.6880    10.1020     8.8100 ns         1 UPZ      -0.387200
     13 O11        -23.9340    10.7530    10.9010 o          1 UPZ      -0.520000
     14 O12        -26.8650     9.6610     3.9830 o          1 UPZ      -0.502000
     15 O13        -25.7540    11.4060     3.1070 os         1 UPZ      -0.456100
     16 H1         -24.9410    12.9710     4.6420 h4         1 UPZ       0.049100
     17 H2         -25.1190     8.1840     7.1110 hc         1 UPZ       0.083700
     18 H3         -26.8010     8.7120     7.2020 hc         1 UPZ       0.083700
     19 H4         -26.0890     8.3620     5.6240 hc         1 UPZ       0.083700
     20 H5         -27.4440    11.2240     1.9230 h1         1 UPZ       0.052200
     21 H6         -26.1140    10.1300     1.5150 h1         1 UPZ       0.052200
     22 H7         -26.2570    12.0000    -0.1390 hc         1 UPZ       0.050033
     23 H8         -26.0660    13.1830     1.1630 hc         1 UPZ       0.050033
     24 H9         -24.7330    12.0840     0.7560 hc         1 UPZ       0.050033
     25 H10        -23.3850    13.1060     9.3180 ha         1 UPZ       0.245000
     26 H12        -25.3810     9.4310     9.1200 hn         1 UPZ       0.329500
     27 C14        -25.8860     8.7730     6.6040 c3         1 UPZ      -0.087800
@<TRIPOS>BOND
     1     1     3 1   
     2     1    10 2   
     3     1    11 1   
     4     2     4 1   
     5     2     6 1   
     6     2     9 2   
     7     3     4 2   
     8     4    16 1   
     9     5    10 1   
    10     5    12 1   
    11     5    13 2   
    12     6    14 2   
    13     6    15 1   
    14     7     8 1   
    15     7    15 1   
    16     7    20 1   
    17     7    21 1   
    18     8    22 1   
    19     8    23 1   
    20     8    24 1   
    21     9    11 1   
    22     9    27 1   
    23    10    25 1   
    24    11    12 1   
    25    12    26 1   
    26    17    27 1   
    27    18    27 1   
    28    19    27 1   
@<TRIPOS>SUBSTRUCTURE
     1 UPZ         1 TEMP              0 ****  ****    0 ROOT
