@<TRIPOS>MOLECULE
UPZ
   27    28     1     0     0
SMALL
No Charge or Current Charge


@<TRIPOS>ATOM
      1 C2         -24.2960    11.9350     7.5820 cc         1 UPZ       0.492500
      2 C3         -25.3800    10.9560     5.4040 cd         1 UPZ      -0.318600
      3 N6         -24.1830    12.7770     6.5340 nc         1 UPZ      -0.687000
      4 C8         -24.7580    12.2630     5.4570 cd         1 UPZ       0.460900
      5 C9         -24.0970    11.0570     9.7410 c          1 UPZ       0.554200
      6 C10        -25.9560    10.5190     4.1010 c          1 UPZ       0.633700
      7 C15        -26.3320    11.1290     1.7960 c3         1 UPZ       0.170600
      8 C16        -26.0290    12.3270     0.8820 c3         1 UPZ      -0.098100
      9 C4         -25.4320    10.1220     6.5420 cc         1 UPZ       0.100700
     10 C5         -23.7830    12.1520     8.8270 cd         1 UPZ      -0.395200
     11 N1         -24.9010    10.7080     7.7040 na         1 UPZ      -0.087800
     12 N7         -24.7700    10.1460     8.9760 ns         1 UPZ      -0.387200
     13 O11        -23.8600    10.9780    10.9330 o          1 UPZ      -0.520000
     14 O12        -26.5180     9.4500     3.9150 o          1 UPZ      -0.502000
     15 O13        -25.8090    11.4420     3.0990 os         1 UPZ      -0.456100
     16 H1         -24.6980    12.9240     4.6020 h4         1 UPZ       0.049100
     17 H2         -25.8750     8.2600     7.6050 hc         1 UPZ       0.083700
     18 H3         -27.0880     8.7360     6.4190 hc         1 UPZ       0.083700
     19 H4         -25.5310     8.0610     5.8950 hc         1 UPZ       0.083700
     20 H5         -27.4170    10.9640     1.8360 h1         1 UPZ       0.052200
     21 H6         -25.8550    10.2280     1.3870 h1         1 UPZ       0.052200
     22 H7         -26.4090    12.1380    -0.1290 hc         1 UPZ       0.050033
     23 H8         -26.5080    13.2360     1.2650 hc         1 UPZ       0.050033
     24 H9         -24.9490    12.5000     0.8170 hc         1 UPZ       0.050033
     25 H10        -23.2400    13.0220     9.1610 ha         1 UPZ       0.245000
     26 H12        -25.5040     9.5900     9.4020 hn         1 UPZ       0.329500
     27 C14        -26.0110     8.7240     6.6230 c3         1 UPZ      -0.087800
@<TRIPOS>BOND
     1     1     3 1   
     2     1    10 2   
     3     1    11 1   
     4     2     4 1   
     5     2     6 1   
     6     2     9 2   
     7     3     4 2   
     8     4    16 1   
     9     5    10 1   
    10     5    12 1   
    11     5    13 2   
    12     6    14 2   
    13     6    15 1   
    14     7     8 1   
    15     7    15 1   
    16     7    20 1   
    17     7    21 1   
    18     8    22 1   
    19     8    23 1   
    20     8    24 1   
    21     9    11 1   
    22     9    27 1   
    23    10    25 1   
    24    11    12 1   
    25    12    26 1   
    26    17    27 1   
    27    18    27 1   
    28    19    27 1   
@<TRIPOS>SUBSTRUCTURE
     1 UPZ         1 TEMP              0 ****  ****    0 ROOT
