@<TRIPOS>MOLECULE
UQ0
   23    23     1     0     0
SMALL
abcg2


@<TRIPOS>ATOM
      1 O1          -7.6150   -44.3190    12.0590 o          1 UQ0      -0.504100
      2 C1          -6.9490   -45.3380    12.2080 c          1 UQ0       0.551500
      3 C6          -5.6860   -45.2910    12.9640 cc         1 UQ0      -0.241200
      4 C5          -4.9760   -46.3870    13.2480 cd         1 UQ0      -0.124400
      5 CM5         -3.7150   -46.3850    14.0460 c3         1 UQ0      -0.052900
      6 C4          -5.4600   -47.7040    12.7490 c          1 UQ0       0.556500
      7 O4          -4.8440   -48.7240    12.9960 o          1 UQ0      -0.464100
      8 C2          -7.4140   -46.6300    11.6630 cc         1 UQ0      -0.099100
      9 O2          -8.6130   -46.6450    11.0200 os         1 UQ0      -0.346100
     10 CM2         -8.6520   -46.0090     9.7280 c3         1 UQ0       0.142900
     11 C3          -6.7110   -47.7640    11.9180 cd         1 UQ0       0.068900
     12 O3          -6.9790   -49.0150    11.5460 os         1 UQ0      -0.321100
     13 CM3         -7.9470   -49.3240    10.5260 c3         1 UQ0       0.159900
     14 H6          -5.3810   -44.3090    13.3040 ha         1 UQ0       0.209000
     15 HM51        -2.8930   -46.8080    13.4650 hc         1 UQ0       0.058700
     16 HM52        -3.4550   -45.3720    14.3480 hc         1 UQ0       0.058700
     17 HM53        -3.8260   -47.0070    14.9370 hc         1 UQ0       0.058700
     18 HM21        -9.6800   -46.0910     9.3840 h1         1 UQ0       0.043700
     19 HM22        -8.3660   -44.9610     9.8010 h1         1 UQ0       0.043700
     20 HM23        -7.9880   -46.5310     9.0360 h1         1 UQ0       0.043700
     21 HM31        -7.8230   -50.3880    10.3430 h1         1 UQ0       0.052033
     22 HM32        -8.9560   -49.1130    10.8700 h1         1 UQ0       0.052033
     23 HM33        -7.7320   -48.7630     9.6180 h1         1 UQ0       0.052033
@<TRIPOS>BOND
     1     1     2 2   
     2     2     3 1   
     3     2     8 1   
     4     3     4 2   
     5     3    14 1   
     6     4     5 1   
     7     4     6 1   
     8     5    15 1   
     9     5    16 1   
    10     5    17 1   
    11     6     7 2   
    12     6    11 1   
    13     8     9 1   
    14     8    11 2   
    15     9    10 1   
    16    10    18 1   
    17    10    19 1   
    18    10    20 1   
    19    11    12 1   
    20    12    13 1   
    21    13    21 1   
    22    13    22 1   
    23    13    23 1   
@<TRIPOS>SUBSTRUCTURE
     1 UQ0         1 TEMP              0 ****  ****    0 ROOT
