@<TRIPOS>MOLECULE
UQ0
   23    23     1     0     0
SMALL
No Charge or Current Charge


@<TRIPOS>ATOM
      1 O1          -7.0740   -44.2440    11.3570 o          1 UQ0      -0.504100
      2 C1          -6.6210   -45.3060    11.7640 c          1 UQ0       0.551500
      3 C6          -5.5060   -45.2960    12.7190 cc         1 UQ0      -0.241200
      4 C5          -4.9230   -46.4340    13.2390 cd         1 UQ0      -0.124400
      5 CM5         -3.7730   -46.3870    14.2230 c3         1 UQ0      -0.052900
      6 C4          -5.4090   -47.7910    12.8480 c          1 UQ0       0.556500
      7 O4          -4.8960   -48.8100    13.3050 o          1 UQ0      -0.464100
      8 C2          -7.1270   -46.6650    11.3560 cc         1 UQ0      -0.099100
      9 O2          -8.1720   -46.8520    10.4630 os         1 UQ0      -0.346100
     10 CM2         -8.8910   -45.7770     9.8290 c3         1 UQ0       0.142900
     11 C3          -6.5500   -47.8440    11.8710 cd         1 UQ0       0.068900
     12 O3          -6.9560   -49.1430    11.5460 os         1 UQ0      -0.321100
     13 CM3         -8.0170   -49.5170    10.6440 c3         1 UQ0       0.159900
     14 H6          -5.1620   -44.3060    12.9960 ha         1 UQ0       0.209000
     15 HM51        -2.8880   -46.8970    13.8230 hc         1 UQ0       0.058700
     16 HM52        -3.4800   -45.3560    14.4550 hc         1 UQ0       0.058700
     17 HM53        -4.0410   -46.8720    15.1700 hc         1 UQ0       0.058700
     18 HM21        -9.6690   -46.1820     9.1690 h1         1 UQ0       0.043700
     19 HM22        -9.3830   -45.1390    10.5740 h1         1 UQ0       0.043700
     20 HM23        -8.2190   -45.1630     9.2160 h1         1 UQ0       0.043700
     21 HM31        -8.0980   -50.6100    10.5950 h1         1 UQ0       0.052033
     22 HM32        -8.9850   -49.1310    10.9880 h1         1 UQ0       0.052033
     23 HM33        -7.8190   -49.1550     9.6270 h1         1 UQ0       0.052033
@<TRIPOS>BOND
     1     1     2 2   
     2     2     3 1   
     3     2     8 1   
     4     3     4 2   
     5     3    14 1   
     6     4     5 1   
     7     4     6 1   
     8     5    15 1   
     9     5    16 1   
    10     5    17 1   
    11     6     7 2   
    12     6    11 1   
    13     8     9 1   
    14     8    11 2   
    15     9    10 1   
    16    10    18 1   
    17    10    19 1   
    18    10    20 1   
    19    11    12 1   
    20    12    13 1   
    21    13    21 1   
    22    13    22 1   
    23    13    23 1   
@<TRIPOS>SUBSTRUCTURE
     1 UQ0         1 TEMP              0 ****  ****    0 ROOT
