@<TRIPOS>MOLECULE
UQ1
   36    36     1     0     0
SMALL
abcg2


@<TRIPOS>ATOM
      1 C1           0.7620    -0.4320    -0.1810 c          1 UQ1       0.544500
      2 O1           1.7390    -0.5040    -0.8940 o          1 UQ1      -0.478100
      3 C2           0.9220    -0.0100     1.2340 cc         1 UQ1       0.016900
      4 O2           2.1550     0.3380     1.6320 os         1 UQ1      -0.340100
      5 CM2          2.9650    -0.7350     2.1110 c3         1 UQ1       0.153900
      6 C3          -0.1360     0.0230     2.0550 cd         1 UQ1       0.011900
      7 O3          -0.0150     0.3160     3.3580 os         1 UQ1      -0.341100
      8 CM3         -0.3160     1.6650     3.7130 c3         1 UQ1       0.153900
      9 C4          -1.4930    -0.3070     1.5500 c          1 UQ1       0.541500
     10 O4          -2.4300    -0.2900     2.3200 o          1 UQ1      -0.484100
     11 C5          -1.6680    -0.6690     0.1180 cc         1 UQ1      -0.133400
     12 CM5         -3.0620    -0.9590    -0.3460 c3         1 UQ1      -0.057900
     13 C6          -0.5960    -0.7510    -0.6890 cd         1 UQ1      -0.133400
     14 C7          -0.6910    -1.1040    -2.1460 c3         1 UQ1       0.005000
     15 C8          -0.7570     0.1450    -2.9790 c2         1 UQ1      -0.239200
     16 C9           0.1170     0.5660    -3.8970 c2         1 UQ1      -0.084400
     17 C10         -0.1230     1.8480    -4.6410 c3         1 UQ1      -0.059400
     18 C11          1.3730    -0.1490    -4.2870 c3         1 UQ1      -0.059400
     19 HM21         3.9430    -0.3160     2.3320 h1         1 UQ1       0.044033
     20 HM22         2.5470    -1.1660     3.0230 h1         1 UQ1       0.044033
     21 HM23         3.0790    -1.5220     1.3640 h1         1 UQ1       0.044033
     22 HM31        -0.1690     1.7470     4.7870 h1         1 UQ1       0.044700
     23 HM32         0.3560     2.3620     3.2080 h1         1 UQ1       0.044700
     24 HM33        -1.3480     1.9270     3.4780 h1         1 UQ1       0.044700
     25 HM51        -3.7990    -0.6790     0.4010 hc         1 UQ1       0.057367
     26 HM52        -3.2970    -0.4220    -1.2640 hc         1 UQ1       0.057367
     27 HM53        -3.1900    -2.0230    -0.5520 hc         1 UQ1       0.057367
     28 H71          0.1500    -1.7330    -2.4330 hc         1 UQ1       0.062700
     29 H72         -1.5900    -1.7010    -2.3140 hc         1 UQ1       0.062700
     30 H8          -1.6280     0.7680    -2.7920 ha         1 UQ1       0.166000
     31 H101        -0.1950     1.6670    -5.7160 hc         1 UQ1       0.042367
     32 H102        -1.0380     2.3450    -4.3190 hc         1 UQ1       0.042367
     33 H103         0.7090     2.5420    -4.4990 hc         1 UQ1       0.042367
     34 H111         1.5560    -1.0620    -3.7260 hc         1 UQ1       0.042367
     35 H112         1.3490    -0.4060    -5.3490 hc         1 UQ1       0.042367
     36 H113         2.2370     0.5050    -4.1480 hc         1 UQ1       0.042367
@<TRIPOS>BOND
     1     1     2 2   
     2     1     3 1   
     3     1    13 1   
     4     3     4 1   
     5     3     6 2   
     6     4     5 1   
     7     5    19 1   
     8     5    20 1   
     9     5    21 1   
    10     6     7 1   
    11     6     9 1   
    12     7     8 1   
    13     8    22 1   
    14     8    23 1   
    15     8    24 1   
    16     9    10 2   
    17     9    11 1   
    18    11    12 1   
    19    11    13 2   
    20    12    25 1   
    21    12    26 1   
    22    12    27 1   
    23    13    14 1   
    24    14    15 1   
    25    14    28 1   
    26    14    29 1   
    27    15    16 2   
    28    15    30 1   
    29    16    17 1   
    30    16    18 1   
    31    17    31 1   
    32    17    32 1   
    33    17    33 1   
    34    18    34 1   
    35    18    35 1   
    36    18    36 1   
@<TRIPOS>SUBSTRUCTURE
     1 UQ1         1 TEMP              0 ****  ****    0 ROOT
