@<TRIPOS>MOLECULE
UQ1
   36    36     1     0     0
SMALL
No Charge or Current Charge


@<TRIPOS>ATOM
      1 C1           0.7460    -0.6030    -0.0670 c          1 UQ1       0.544500
      2 O1           1.6980    -0.9560    -0.7550 o          1 UQ1      -0.478100
      3 C2           0.9060    -0.1160     1.3410 cc         1 UQ1       0.016900
      4 O2           2.1190    -0.0060     2.0180 os         1 UQ1      -0.340100
      5 CM2          3.3890    -0.3510     1.4330 c3         1 UQ1       0.153900
      6 C3          -0.1720     0.2770     2.1220 cd         1 UQ1       0.011900
      7 O3           0.1380     0.6980     3.4150 os         1 UQ1      -0.341100
      8 CM3         -0.8420     1.1470     4.3710 c3         1 UQ1       0.153900
      9 C4          -1.5770     0.2400     1.5710 c          1 UQ1       0.541500
     10 O4          -2.5550     0.5690     2.2340 o          1 UQ1      -0.484100
     11 C5          -1.7420    -0.2270     0.1570 cc         1 UQ1      -0.133400
     12 CM5         -3.1830    -0.2180    -0.3400 c3         1 UQ1      -0.057900
     13 C6          -0.6520    -0.6410    -0.6090 cd         1 UQ1      -0.133400
     14 C7          -0.7800    -1.1500    -2.0400 c3         1 UQ1       0.005000
     15 C8          -0.7100    -0.0000    -3.0340 c2         1 UQ1      -0.239200
     16 C9           0.2370     0.2640    -3.9550 c2         1 UQ1      -0.084400
     17 C10          0.1460     1.4670    -4.8780 c3         1 UQ1      -0.059400
     18 C11          1.4970    -0.5510    -4.2130 c3         1 UQ1      -0.059400
     19 HM21         4.1960    -0.1790     2.1570 h1         1 UQ1       0.044033
     20 HM22         3.4160    -1.4100     1.1470 h1         1 UQ1       0.044033
     21 HM23         3.5950     0.2650     0.5490 h1         1 UQ1       0.044033
     22 HM31        -0.3500     1.4270     5.3110 h1         1 UQ1       0.044700
     23 HM32        -1.3790     2.0290     4.0000 h1         1 UQ1       0.044700
     24 HM33        -1.5650     0.3530     4.5960 h1         1 UQ1       0.044700
     25 HM51        -3.7250     0.6750    -0.0050 hc         1 UQ1       0.057367
     26 HM52        -3.2560    -0.2150    -1.4320 hc         1 UQ1       0.057367
     27 HM53        -3.7260    -1.0970     0.0270 hc         1 UQ1       0.057367
     28 H71         -0.0360    -1.9240    -2.2510 hc         1 UQ1       0.062700
     29 H72         -1.7290    -1.6840    -2.1700 hc         1 UQ1       0.062700
     30 H8          -1.5660     0.6720    -2.9540 ha         1 UQ1       0.166000
     31 H101         0.1270     1.1570    -5.9300 hc         1 UQ1       0.042367
     32 H102        -0.7600     2.0560    -4.6930 hc         1 UQ1       0.042367
     33 H103         1.0040     2.1350    -4.7410 hc         1 UQ1       0.042367
     34 H111         1.5990    -1.4190    -3.5560 hc         1 UQ1       0.042367
     35 H112         1.5160    -0.9240    -5.2440 hc         1 UQ1       0.042367
     36 H113         2.3940     0.0640    -4.0690 hc         1 UQ1       0.042367
@<TRIPOS>BOND
     1     1     2 2   
     2     1     3 1   
     3     1    13 1   
     4     3     4 1   
     5     3     6 2   
     6     4     5 1   
     7     5    19 1   
     8     5    20 1   
     9     5    21 1   
    10     6     7 1   
    11     6     9 1   
    12     7     8 1   
    13     8    22 1   
    14     8    23 1   
    15     8    24 1   
    16     9    10 2   
    17     9    11 1   
    18    11    12 1   
    19    11    13 2   
    20    12    25 1   
    21    12    26 1   
    22    12    27 1   
    23    13    14 1   
    24    14    15 1   
    25    14    28 1   
    26    14    29 1   
    27    15    16 2   
    28    15    30 1   
    29    16    17 1   
    30    16    18 1   
    31    17    31 1   
    32    17    32 1   
    33    17    33 1   
    34    18    34 1   
    35    18    35 1   
    36    18    36 1   
@<TRIPOS>SUBSTRUCTURE
     1 UQ1         1 TEMP              0 ****  ****    0 ROOT
