@<TRIPOS>MOLECULE
UQ2
   49    49     1     0     0
SMALL
bcc


@<TRIPOS>ATOM
      1 C1          -0.8470     0.8450    -1.4390 c          1 UQ2       0.544500
      2 C2           0.2490     0.9240    -2.4380 cc         1 UQ2       0.014900
      3 C3           0.5670    -0.1440    -3.1820 cd         1 UQ2       0.012900
      4 C4          -0.1390    -1.4370    -2.9890 c          1 UQ2       0.542500
      5 C5          -1.2220    -1.5280    -1.9730 cc         1 UQ2      -0.132400
      6 C6          -1.5600    -0.4440    -1.2530 cd         1 UQ2      -0.134400
      7 CM2          0.3020     3.0450    -3.4190 c3         1 UQ2       0.130700
      8 CM3          2.8090    -0.5020    -3.7380 c3         1 UQ2       0.130700
      9 CM5         -1.8920    -2.8570    -1.8050 c3         1 UQ2      -0.057900
     10 C7          -2.6090    -0.4670    -0.1780 c3         1 UQ2       0.005000
     11 C8          -1.9550    -0.7040     1.1550 c2         1 UQ2      -0.188200
     12 C9          -1.9300     0.1140     2.2090 c2         1 UQ2      -0.084400
     13 C10         -2.5900     1.4600     2.2610 c3         1 UQ2      -0.056900
     14 C11         -1.1900    -0.2930     3.4560 c3         1 UQ2      -0.041200
     15 C12         -0.0230     0.6460     3.7990 c3         1 UQ2      -0.035200
     16 C13          0.6620     0.2190     5.0590 c2         1 UQ2      -0.175200
     17 C14          1.9150    -0.2190     5.2100 c2         1 UQ2      -0.111400
     18 C15          2.4280    -0.6470     6.5540 c3         1 UQ2      -0.055900
     19 C16          2.9170    -0.3370     4.0990 c3         1 UQ2      -0.055900
     20 O1          -1.1370     1.8290    -0.7940 o          1 UQ2      -0.480100
     21 O2           0.9050     2.0890    -2.5460 os         1 UQ2      -0.317900
     22 O3           1.5030    -0.0930    -4.1420 os         1 UQ2      -0.316900
     23 O4           0.1750    -2.3880    -3.6710 o          1 UQ2      -0.481100
     24 H2M1         0.9490     3.9190    -3.4220 h1         1 UQ2       0.044700
     25 H2M2         0.2280     2.6550    -4.4360 h1         1 UQ2       0.044700
     26 H2M3        -0.6900     3.3390    -3.0740 h1         1 UQ2       0.044700
     27 H3M1         3.4530    -0.4000    -4.6080 h1         1 UQ2       0.044033
     28 H3M2         3.1910     0.1330    -2.9370 h1         1 UQ2       0.044033
     29 H3M3         2.8250    -1.5420    -3.4080 h1         1 UQ2       0.044033
     30 H5M1        -1.5080    -3.5930    -2.5060 hc         1 UQ2       0.057367
     31 H5M2        -1.7390    -3.2480    -0.7980 hc         1 UQ2       0.057367
     32 H5M3        -2.9680    -2.7760    -1.9600 hc         1 UQ2       0.057367
     33 H71         -3.1710     0.4650    -0.1910 hc         1 UQ2       0.063200
     34 H72         -3.3220    -1.2680    -0.3820 hc         1 UQ2       0.063200
     35 H8          -1.4330    -1.6540     1.2370 ha         1 UQ2       0.117000
     36 H101        -3.3530     1.5940     1.4960 hc         1 UQ2       0.044033
     37 H102        -3.0630     1.6150     3.2330 hc         1 UQ2       0.044033
     38 H103        -1.8590     2.2610     2.1330 hc         1 UQ2       0.044033
     39 H111        -1.8860    -0.3080     4.3020 hc         1 UQ2       0.045700
     40 H112        -0.8060    -1.3100     3.3480 hc         1 UQ2       0.045700
     41 H121         0.6680     0.6780     2.9540 hc         1 UQ2       0.048700
     42 H122        -0.4050     1.6630     3.9280 hc         1 UQ2       0.048700
     43 H13          0.0330     0.2490     5.9470 ha         1 UQ2       0.113000
     44 H151         2.7720    -1.6840     6.5290 hc         1 UQ2       0.038533
     45 H152         3.2890    -0.0450     6.8560 hc         1 UQ2       0.038533
     46 H153         1.6680    -0.5620     7.3310 hc         1 UQ2       0.038533
     47 H161         2.5680     0.0730     3.1550 hc         1 UQ2       0.038533
     48 H162         3.8450     0.1750     4.3650 hc         1 UQ2       0.038533
     49 H163         3.1810    -1.3850     3.9260 hc         1 UQ2       0.038533
@<TRIPOS>BOND
     1     1     2 1   
     2     1     6 1   
     3     1    20 2   
     4     2     3 2   
     5     2    21 1   
     6     3     4 1   
     7     3    22 1   
     8     4     5 1   
     9     4    23 2   
    10     5     6 2   
    11     5     9 1   
    12     6    10 1   
    13     7    21 1   
    14     7    24 1   
    15     7    25 1   
    16     7    26 1   
    17     8    22 1   
    18     8    27 1   
    19     8    28 1   
    20     8    29 1   
    21     9    30 1   
    22     9    31 1   
    23     9    32 1   
    24    10    11 1   
    25    10    33 1   
    26    10    34 1   
    27    11    12 2   
    28    11    35 1   
    29    12    13 1   
    30    12    14 1   
    31    13    36 1   
    32    13    37 1   
    33    13    38 1   
    34    14    15 1   
    35    14    39 1   
    36    14    40 1   
    37    15    16 1   
    38    15    41 1   
    39    15    42 1   
    40    16    17 2   
    41    16    43 1   
    42    17    18 1   
    43    17    19 1   
    44    18    44 1   
    45    18    45 1   
    46    18    46 1   
    47    19    47 1   
    48    19    48 1   
    49    19    49 1   
@<TRIPOS>SUBSTRUCTURE
     1 UQ2         1 TEMP              0 ****  ****    0 ROOT
