@<TRIPOS>MOLECULE
UQ2
   49    49     1     0     0
SMALL
No Charge or Current Charge


@<TRIPOS>ATOM
      1 C1          -0.9460     0.8280    -1.6630 c          1 UQ2       0.544500
      2 C2           0.1440     0.9800    -2.6800 cc         1 UQ2       0.014900
      3 C3           0.8300    -0.1060    -3.2070 cd         1 UQ2       0.012900
      4 C4           0.5060    -1.5110    -2.7620 c          1 UQ2       0.542500
      5 C5          -0.5680    -1.6690    -1.7300 cc         1 UQ2      -0.132400
      6 C6          -1.2650    -0.5710    -1.2260 cd         1 UQ2      -0.134400
      7 CM2          0.0410     3.4700    -2.8250 c3         1 UQ2       0.153900
      8 CM3          2.6300    -0.7920    -4.8050 c3         1 UQ2       0.153900
      9 CM5         -0.8250    -3.1120    -1.3100 c3         1 UQ2      -0.057900
     10 C7          -2.3810    -0.6890    -0.1950 c3         1 UQ2       0.005000
     11 C8          -1.8170    -0.6580     1.2170 c2         1 UQ2      -0.238200
     12 C9          -1.9590     0.2880     2.1670 c2         1 UQ2      -0.084400
     13 C10         -2.7560     1.5810     2.0330 c3         1 UQ2      -0.056900
     14 C11         -1.3080     0.1400     3.5350 c3         1 UQ2      -0.041200
     15 C12         -0.0220     0.9810     3.6860 c3         1 UQ2      -0.035200
     16 C13          0.6750     0.7300     5.0110 c2         1 UQ2      -0.225200
     17 C14          1.5880    -0.2200     5.2900 c2         1 UQ2      -0.111400
     18 C15          2.2350    -0.3490     6.6560 c3         1 UQ2      -0.055900
     19 C16          2.0880    -1.2740     4.3120 c3         1 UQ2      -0.055900
     20 O1          -1.5550     1.7880    -1.2020 o          1 UQ2      -0.480100
     21 O2           0.5860     2.1920    -3.2060 os         1 UQ2      -0.341100
     22 O3           1.8110     0.1970    -4.1510 os         1 UQ2      -0.340100
     23 O4           1.0820    -2.4960    -3.2130 o          1 UQ2      -0.481100
     24 H2M1         0.5500     4.2750    -3.3710 h1         1 UQ2       0.044700
     25 H2M2        -1.0280     3.5280    -3.0630 h1         1 UQ2       0.044700
     26 H2M3         0.1800     3.6520    -1.7520 h1         1 UQ2       0.044700
     27 H3M1         3.3270    -0.3040    -5.4980 h1         1 UQ2       0.044033
     28 H3M2         3.2250    -1.3560    -4.0750 h1         1 UQ2       0.044033
     29 H3M3         2.0150    -1.4910    -5.3860 h1         1 UQ2       0.044033
     30 H5M1         0.1090    -3.6760    -1.1970 hc         1 UQ2       0.057367
     31 H5M2        -1.3360    -3.1890    -0.3460 hc         1 UQ2       0.057367
     32 H5M3        -1.4400    -3.6290    -2.0560 hc         1 UQ2       0.057367
     33 H71         -3.1460     0.0780    -0.3520 hc         1 UQ2       0.063200
     34 H72         -2.9400    -1.6210    -0.3420 hc         1 UQ2       0.063200
     35 H8          -1.2160    -1.5400     1.4430 ha         1 UQ2       0.167000
     36 H101        -3.2690     1.6800     1.0720 hc         1 UQ2       0.044033
     37 H102        -3.5260     1.6480     2.8110 hc         1 UQ2       0.044033
     38 H103        -2.1070     2.4580     2.1350 hc         1 UQ2       0.044033
     39 H111        -2.0160     0.4050     4.3310 hc         1 UQ2       0.045700
     40 H112        -1.0470    -0.9110     3.7090 hc         1 UQ2       0.045700
     41 H121         0.6480     0.7620     2.8470 hc         1 UQ2       0.048700
     42 H122        -0.2670     2.0460     3.5990 hc         1 UQ2       0.048700
     43 H13          0.3810     1.4370     5.7890 ha         1 UQ2       0.163000
     44 H151         2.0240    -1.3280     7.1030 hc         1 UQ2       0.038533
     45 H152         3.3250    -0.2400     6.5890 hc         1 UQ2       0.038533
     46 H153         1.8710     0.4150     7.3530 hc         1 UQ2       0.038533
     47 H161         1.5850    -1.2300     3.3410 hc         1 UQ2       0.038533
     48 H162         3.1630    -1.1600     4.1290 hc         1 UQ2       0.038533
     49 H163         1.9250    -2.2830     4.7090 hc         1 UQ2       0.038533
@<TRIPOS>BOND
     1     1     2 1   
     2     1     6 1   
     3     1    20 2   
     4     2     3 2   
     5     2    21 1   
     6     3     4 1   
     7     3    22 1   
     8     4     5 1   
     9     4    23 2   
    10     5     6 2   
    11     5     9 1   
    12     6    10 1   
    13     7    21 1   
    14     7    24 1   
    15     7    25 1   
    16     7    26 1   
    17     8    22 1   
    18     8    27 1   
    19     8    28 1   
    20     8    29 1   
    21     9    30 1   
    22     9    31 1   
    23     9    32 1   
    24    10    11 1   
    25    10    33 1   
    26    10    34 1   
    27    11    12 2   
    28    11    35 1   
    29    12    13 1   
    30    12    14 1   
    31    13    36 1   
    32    13    37 1   
    33    13    38 1   
    34    14    15 1   
    35    14    39 1   
    36    14    40 1   
    37    15    16 1   
    38    15    41 1   
    39    15    42 1   
    40    16    17 2   
    41    16    43 1   
    42    17    18 1   
    43    17    19 1   
    44    18    44 1   
    45    18    45 1   
    46    18    46 1   
    47    19    47 1   
    48    19    48 1   
    49    19    49 1   
@<TRIPOS>SUBSTRUCTURE
     1 UQ2         1 TEMP              0 ****  ****    0 ROOT
