@<TRIPOS>MOLECULE
UQ5
   88    88     1     0     0
SMALL
No Charge or Current Charge


@<TRIPOS>ATOM
      1 C1           7.3170     1.1530     1.2080 cc         1 UQ5      -0.133400
      2 C2           8.0360     2.0070     0.2130 c          1 UQ5       0.538500
      3 C3           8.3240     1.3700    -1.1130 cc         1 UQ5       0.012900
      4 C4           8.0750     0.0280    -1.3700 cd         1 UQ5       0.016900
      5 C5           7.4530    -0.8620    -0.3220 c          1 UQ5       0.542500
      6 C6           7.0880    -0.2020     0.9770 cd         1 UQ5      -0.130400
      7 C1M          6.9390     1.8730     2.4970 c3         1 UQ5      -0.054900
      8 C3M          9.3060     3.4010    -2.1790 c3         1 UQ5       0.153900
      9 C4M          8.2400    -1.7700    -3.1020 c3         1 UQ5       0.153900
     10 C7           6.4300    -1.1190     2.0010 c3         1 UQ5       0.005000
     11 C8           4.9190    -1.1270     1.8240 c2         1 UQ5      -0.237200
     12 C9           4.1160    -2.1360     1.4280 c2         1 UQ5      -0.085400
     13 C10          4.5620    -3.5480     1.0670 c3         1 UQ5      -0.056900
     14 C11          2.6100    -1.9470     1.3060 c3         1 UQ5      -0.041200
     15 C12          2.1430    -1.7520    -0.1520 c3         1 UQ5      -0.036200
     16 C13          0.6580    -1.4470    -0.2420 c2         1 UQ5      -0.223200
     17 C14          0.0610    -0.2430    -0.1530 c2         1 UQ5      -0.111400
     18 C15          0.7840     1.0780     0.0810 c3         1 UQ5      -0.054900
     19 C16         -1.4460    -0.0810    -0.2990 c3         1 UQ5      -0.038200
     20 C17         -2.1710     0.0990     1.0510 c3         1 UQ5      -0.036200
     21 C18         -3.6790     0.1630     0.8880 c2         1 UQ5      -0.222200
     22 C19         -4.5460    -0.8670     0.8480 c2         1 UQ5      -0.112400
     23 C20         -4.1620    -2.3390     0.9450 c3         1 UQ5      -0.055900
     24 C21         -6.0470    -0.6490     0.7150 c3         1 UQ5      -0.038200
     25 C22         -6.5720    -0.9010    -0.7150 c3         1 UQ5      -0.036200
     26 C23         -8.0520    -0.5850    -0.8450 c2         1 UQ5      -0.222200
     27 C24         -8.6160     0.6060    -1.1220 c2         1 UQ5      -0.111400
     28 C25         -7.8530     1.9070    -1.3430 c3         1 UQ5      -0.054900
     29 C26        -10.1230     0.7680    -1.2610 c3         1 UQ5      -0.038200
     30 C27        -10.7850     1.3910    -0.0120 c3         1 UQ5      -0.036200
     31 C28        -12.2970     1.4560    -0.1350 c2         1 UQ5      -0.224200
     32 C29        -13.1880     0.5060     0.2080 c2         1 UQ5      -0.112400
     33 C30        -12.8430    -0.8650     0.7710 c3         1 UQ5      -0.055900
     34 C31        -14.6860     0.7060     0.0600 c3         1 UQ5      -0.055900
     35 O2           8.3340     3.1680     0.4720 o          1 UQ5      -0.484100
     36 O3           8.9110     2.0170    -2.1980 os         1 UQ5      -0.340100
     37 O4           8.4340    -0.4190    -2.6410 os         1 UQ5      -0.341100
     38 O5           7.2430    -2.0570    -0.5030 o          1 UQ5      -0.480100
     39 H1M1         7.7790     1.8750     3.2020 hc         1 UQ5       0.056700
     40 H1M2         6.6460     2.9150     2.3190 hc         1 UQ5       0.056700
     41 H1M3         6.0840     1.4070     2.9980 hc         1 UQ5       0.056700
     42 H3M1         8.4450     4.0540    -1.9870 h1         1 UQ5       0.044700
     43 H3M2        10.0710     3.5810    -1.4120 h1         1 UQ5       0.044700
     44 H3M3         9.7330     3.6850    -3.1490 h1         1 UQ5       0.044700
     45 H4M1         8.8080    -2.4810    -2.4880 h1         1 UQ5       0.044367
     46 H4M2         7.1780    -2.0450    -3.0820 h1         1 UQ5       0.044367
     47 H4M3         8.5910    -1.8690    -4.1370 h1         1 UQ5       0.044367
     48 H71          6.8580    -2.1250     1.9590 hc         1 UQ5       0.063700
     49 H72          6.6720    -0.7920     3.0190 hc         1 UQ5       0.063700
     50 H8           4.4690    -0.1600     2.0540 ha         1 UQ5       0.167000
     51 H101         5.6340    -3.7140     1.1960 hc         1 UQ5       0.043700
     52 H102         4.0490    -4.2910     1.6900 hc         1 UQ5       0.043700
     53 H103         4.3320    -3.7800     0.0200 hc         1 UQ5       0.043700
     54 H111         2.0770    -2.7960     1.7530 hc         1 UQ5       0.045700
     55 H112         2.2990    -1.0660     1.8810 hc         1 UQ5       0.045700
     56 H121         2.7330    -0.9510    -0.6130 hc         1 UQ5       0.048700
     57 H122         2.3650    -2.6550    -0.7330 hc         1 UQ5       0.048700
     58 H13          0.0490    -2.3370    -0.4110 ha         1 UQ5       0.164000
     59 H151         1.8650     0.9580     0.2000 hc         1 UQ5       0.039033
     60 H152         0.6250     1.7660    -0.7580 hc         1 UQ5       0.039033
     61 H153         0.4220     1.5750     0.9890 hc         1 UQ5       0.039033
     62 H161        -1.6800     0.7650    -0.9570 hc         1 UQ5       0.045200
     63 H162        -1.8660    -0.9660    -0.7930 hc         1 UQ5       0.045200
     64 H171        -1.8870    -0.7200     1.7230 hc         1 UQ5       0.044700
     65 H172        -1.8190     1.0170     1.5380 hc         1 UQ5       0.044700
     66 H18         -4.0570     1.1850     0.8100 ha         1 UQ5       0.166000
     67 H201        -3.0820    -2.4930     1.0270 hc         1 UQ5       0.039033
     68 H202        -4.6240    -2.8070     1.8230 hc         1 UQ5       0.039033
     69 H203        -4.4930    -2.8950     0.0610 hc         1 UQ5       0.039033
     70 H211        -6.5930    -1.2850     1.4240 hc         1 UQ5       0.045200
     71 H212        -6.2970     0.3830     0.9900 hc         1 UQ5       0.045200
     72 H221        -5.9830    -0.3060    -1.4220 hc         1 UQ5       0.045700
     73 H222        -6.3980    -1.9480    -0.9910 hc         1 UQ5       0.045700
     74 H23         -8.6890    -1.4600    -0.7040 ha         1 UQ5       0.165000
     75 H251        -6.7700     1.7910    -1.2290 hc         1 UQ5       0.039033
     76 H252        -8.0320     2.3000    -2.3510 hc         1 UQ5       0.039033
     77 H253        -8.1630     2.6770    -0.6280 hc         1 UQ5       0.039033
     78 H261       -10.3660     1.3720    -2.1440 hc         1 UQ5       0.044700
     79 H262       -10.5860    -0.2120    -1.4340 hc         1 UQ5       0.044700
     80 H271       -10.4900     0.8150     0.8730 hc         1 UQ5       0.045700
     81 H272       -10.3900     2.4020     0.1470 hc         1 UQ5       0.045700
     82 H28        -12.6530     2.4060    -0.5370 ha         1 UQ5       0.164000
     83 H301       -11.7640    -1.0450     0.8260 hc         1 UQ5       0.038533
     84 H302       -13.2470    -0.9850     1.7840 hc         1 UQ5       0.038533
     85 H303       -13.2670    -1.6610     0.1480 hc         1 UQ5       0.038533
     86 H311       -14.9260     1.6970    -0.3450 hc         1 UQ5       0.038533
     87 H312       -15.1190    -0.0390    -0.6180 hc         1 UQ5       0.038533
     88 H313       -15.1940     0.6150     1.0270 hc         1 UQ5       0.038533
@<TRIPOS>BOND
     1     1     2 1   
     2     1     6 2   
     3     1     7 1   
     4     2     3 1   
     5     2    35 2   
     6     3     4 2   
     7     3    36 1   
     8     4     5 1   
     9     4    37 1   
    10     5     6 1   
    11     5    38 2   
    12     6    10 1   
    13     7    39 1   
    14     7    40 1   
    15     7    41 1   
    16     8    36 1   
    17     8    42 1   
    18     8    43 1   
    19     8    44 1   
    20     9    37 1   
    21     9    45 1   
    22     9    46 1   
    23     9    47 1   
    24    10    11 1   
    25    10    48 1   
    26    10    49 1   
    27    11    12 2   
    28    11    50 1   
    29    12    13 1   
    30    12    14 1   
    31    13    51 1   
    32    13    52 1   
    33    13    53 1   
    34    14    15 1   
    35    14    54 1   
    36    14    55 1   
    37    15    16 1   
    38    15    56 1   
    39    15    57 1   
    40    16    17 2   
    41    16    58 1   
    42    17    18 1   
    43    17    19 1   
    44    18    59 1   
    45    18    60 1   
    46    18    61 1   
    47    19    20 1   
    48    19    62 1   
    49    19    63 1   
    50    20    21 1   
    51    20    64 1   
    52    20    65 1   
    53    21    22 2   
    54    21    66 1   
    55    22    23 1   
    56    22    24 1   
    57    23    67 1   
    58    23    68 1   
    59    23    69 1   
    60    24    25 1   
    61    24    70 1   
    62    24    71 1   
    63    25    26 1   
    64    25    72 1   
    65    25    73 1   
    66    26    27 2   
    67    26    74 1   
    68    27    28 1   
    69    27    29 1   
    70    28    75 1   
    71    28    76 1   
    72    28    77 1   
    73    29    30 1   
    74    29    78 1   
    75    29    79 1   
    76    30    31 1   
    77    30    80 1   
    78    30    81 1   
    79    31    32 2   
    80    31    82 1   
    81    32    33 1   
    82    32    34 1   
    83    33    83 1   
    84    33    84 1   
    85    33    85 1   
    86    34    86 1   
    87    34    87 1   
    88    34    88 1   
@<TRIPOS>SUBSTRUCTURE
     1 UQ5         1 TEMP              0 ****  ****    0 ROOT
