@<TRIPOS>MOLECULE
UQ5
   88    88     1     0     0
SMALL
abcg2


@<TRIPOS>ATOM
      1 C1           7.4580     0.3320     1.7700 cc         1 UQ5      -0.133400
      2 C2           8.1270     1.4780     1.0990 c          1 UQ5       0.538500
      3 C3           8.3290     1.4490    -0.3710 cc         1 UQ5       0.012900
      4 C4           7.9020     0.4030    -1.0900 cd         1 UQ5       0.016900
      5 C5           7.2760    -0.7650    -0.4210 c          1 UQ5       0.542500
      6 C6           7.0660    -0.7370     1.0530 cd         1 UQ5      -0.130400
      7 C1M          7.2650     0.4950     3.2420 c3         1 UQ5      -0.054900
      8 C3M          8.1710     3.6280    -1.2110 c3         1 UQ5       0.153900
      9 C4M          9.1780    -0.2730    -2.9320 c3         1 UQ5       0.153900
     10 C7           6.3380    -1.9220     1.6210 c3         1 UQ5       0.005000
     11 C8           4.8570    -1.7080     1.4860 c2         1 UQ5      -0.237200
     12 C9           3.9860    -2.4290     0.7760 c2         1 UQ5      -0.085400
     13 C10          4.3380    -3.6470    -0.0250 c3         1 UQ5      -0.056900
     14 C11          2.5360    -2.0260     0.7380 c3         1 UQ5      -0.041200
     15 C12          2.0720    -1.5750    -0.6560 c3         1 UQ5      -0.036200
     16 C13          0.6020    -1.2980    -0.6790 c2         1 UQ5      -0.223200
     17 C14         -0.0220    -0.1190    -0.7630 c2         1 UQ5      -0.111400
     18 C15          0.6720     1.2050    -0.8890 c3         1 UQ5      -0.054900
     19 C16         -1.5260    -0.0660    -0.7140 c3         1 UQ5      -0.038200
     20 C17         -2.0720     0.4870     0.6140 c3         1 UQ5      -0.036200
     21 C18         -3.5690     0.5180     0.6180 c2         1 UQ5      -0.222200
     22 C19         -4.4000    -0.3710     1.1690 c2         1 UQ5      -0.112400
     23 C20         -3.9560    -1.5740     1.9480 c3         1 UQ5      -0.055900
     24 C21         -5.8910    -0.2210     1.0110 c3         1 UQ5      -0.038200
     25 C22         -6.4840    -1.2100    -0.0060 c3         1 UQ5      -0.036200
     26 C23         -7.9760    -1.1090    -0.0690 c2         1 UQ5      -0.222200
     27 C24         -8.7280    -0.6000    -1.0500 c2         1 UQ5      -0.111400
     28 C25         -8.1870    -0.0420    -2.3330 c3         1 UQ5      -0.054900
     29 C26        -10.2260    -0.5440    -0.9070 c3         1 UQ5      -0.038200
     30 C27        -10.7730     0.8890    -0.8040 c3         1 UQ5      -0.036200
     31 C28        -12.2670     0.9060    -0.7190 c2         1 UQ5      -0.224200
     32 C29        -13.0270     1.2550     0.3220 c2         1 UQ5      -0.112400
     33 C30        -12.5030     1.7300     1.6440 c3         1 UQ5      -0.055900
     34 C31        -14.5260     1.1970     0.2380 c3         1 UQ5      -0.055900
     35 O2           8.5150     2.4340     1.7360 o          1 UQ5      -0.484100
     36 O3           8.9750     2.4830    -0.9300 os         1 UQ5      -0.340100
     37 O4           8.0050     0.3640    -2.4270 os         1 UQ5      -0.341100
     38 O5           6.9400    -1.7190    -1.0880 o          1 UQ5      -0.480100
     39 H1M1         8.2000     0.7630     3.7340 hc         1 UQ5       0.056700
     40 H1M2         6.5550     1.2990     3.4470 hc         1 UQ5       0.056700
     41 H1M3         6.8840    -0.4060     3.7120 hc         1 UQ5       0.056700
     42 H3M1         7.3820     3.3880    -1.9260 h1         1 UQ5       0.044700
     43 H3M2         7.7200     4.0420    -0.3080 h1         1 UQ5       0.044700
     44 H3M3         8.8300     4.3740    -1.6480 h1         1 UQ5       0.044700
     45 H4M1        10.0810     0.2350    -2.5870 h1         1 UQ5       0.044367
     46 H4M2         9.2250    -1.3240    -2.6430 h1         1 UQ5       0.044367
     47 H4M3         9.1290    -0.2080    -4.0160 h1         1 UQ5       0.044367
     48 H71          6.6620    -2.8280     1.1120 hc         1 UQ5       0.063700
     49 H72          6.5960    -2.0500     2.6730 hc         1 UQ5       0.063700
     50 H8           4.4790    -0.8440     2.0270 ha         1 UQ5       0.167000
     51 H101         5.3240    -4.0430     0.2070 hc         1 UQ5       0.043700
     52 H102         3.6090    -4.4400     0.1520 hc         1 UQ5       0.043700
     53 H103         4.3180    -3.4340    -1.0950 hc         1 UQ5       0.043700
     54 H111         1.9150    -2.8700     1.0600 hc         1 UQ5       0.045700
     55 H112         2.3530    -1.2140     1.4470 hc         1 UQ5       0.045700
     56 H121         2.6580    -0.7050    -0.9600 hc         1 UQ5       0.048700
     57 H122         2.2880    -2.3640    -1.3830 hc         1 UQ5       0.048700
     58 H13         -0.0250    -2.1830    -0.5870 ha         1 UQ5       0.164000
     59 H151         1.7510     1.1160    -0.9940 hc         1 UQ5       0.039033
     60 H152         0.2960     1.7540    -1.7560 hc         1 UQ5       0.039033
     61 H153         0.4820     1.8370    -0.0180 hc         1 UQ5       0.039033
     62 H161        -1.9050     0.5500    -1.5370 hc         1 UQ5       0.045200
     63 H162        -1.9350    -1.0680    -0.8630 hc         1 UQ5       0.045200
     64 H171        -1.6780    -0.1180     1.4330 hc         1 UQ5       0.044700
     65 H172        -1.6960     1.5010     0.7740 hc         1 UQ5       0.044700
     66 H18         -4.0140     1.3460     0.0700 ha         1 UQ5       0.166000
     67 H201        -2.8750    -1.6980     1.9720 hc         1 UQ5       0.039033
     68 H202        -4.3080    -1.5140     2.9810 hc         1 UQ5       0.039033
     69 H203        -4.3790    -2.4900     1.5310 hc         1 UQ5       0.039033
     70 H211        -6.3810    -0.3720     1.9790 hc         1 UQ5       0.045200
     71 H212        -6.1370     0.7940     0.6890 hc         1 UQ5       0.045200
     72 H221        -6.0250    -1.0270    -0.9790 hc         1 UQ5       0.045700
     73 H222        -6.2100    -2.2310     0.2780 hc         1 UQ5       0.045700
     74 H23         -8.4940    -1.4720     0.8170 ha         1 UQ5       0.165000
     75 H251        -7.1210    -0.2160    -2.4630 hc         1 UQ5       0.039033
     76 H252        -8.7030    -0.4820    -3.1900 hc         1 UQ5       0.039033
     77 H253        -8.3490     1.0360    -2.3960 hc         1 UQ5       0.039033
     78 H261       -10.6940    -1.0370    -1.7680 hc         1 UQ5       0.044700
     79 H262       -10.5380    -1.1010    -0.0200 hc         1 UQ5       0.044700
     80 H271       -10.3140     1.3820     0.0550 hc         1 UQ5       0.045700
     81 H272       -10.4630     1.4580    -1.6860 hc         1 UQ5       0.045700
     82 H28        -12.7760     0.5680    -1.6200 ha         1 UQ5       0.164000
     83 H301       -11.4180     1.7060     1.7200 hc         1 UQ5       0.038533
     84 H302       -12.8280     2.7550     1.8410 hc         1 UQ5       0.038533
     85 H303       -12.9080     1.1190     2.4550 hc         1 UQ5       0.038533
     86 H311       -14.8710     0.8610    -0.7390 hc         1 UQ5       0.038533
     87 H312       -14.9320     0.5180     0.9920 hc         1 UQ5       0.038533
     88 H313       -14.9680     2.1770     0.4370 hc         1 UQ5       0.038533
@<TRIPOS>BOND
     1     1     2 1   
     2     1     6 2   
     3     1     7 1   
     4     2     3 1   
     5     2    35 2   
     6     3     4 2   
     7     3    36 1   
     8     4     5 1   
     9     4    37 1   
    10     5     6 1   
    11     5    38 2   
    12     6    10 1   
    13     7    39 1   
    14     7    40 1   
    15     7    41 1   
    16     8    36 1   
    17     8    42 1   
    18     8    43 1   
    19     8    44 1   
    20     9    37 1   
    21     9    45 1   
    22     9    46 1   
    23     9    47 1   
    24    10    11 1   
    25    10    48 1   
    26    10    49 1   
    27    11    12 2   
    28    11    50 1   
    29    12    13 1   
    30    12    14 1   
    31    13    51 1   
    32    13    52 1   
    33    13    53 1   
    34    14    15 1   
    35    14    54 1   
    36    14    55 1   
    37    15    16 1   
    38    15    56 1   
    39    15    57 1   
    40    16    17 2   
    41    16    58 1   
    42    17    18 1   
    43    17    19 1   
    44    18    59 1   
    45    18    60 1   
    46    18    61 1   
    47    19    20 1   
    48    19    62 1   
    49    19    63 1   
    50    20    21 1   
    51    20    64 1   
    52    20    65 1   
    53    21    22 2   
    54    21    66 1   
    55    22    23 1   
    56    22    24 1   
    57    23    67 1   
    58    23    68 1   
    59    23    69 1   
    60    24    25 1   
    61    24    70 1   
    62    24    71 1   
    63    25    26 1   
    64    25    72 1   
    65    25    73 1   
    66    26    27 2   
    67    26    74 1   
    68    27    28 1   
    69    27    29 1   
    70    28    75 1   
    71    28    76 1   
    72    28    77 1   
    73    29    30 1   
    74    29    78 1   
    75    29    79 1   
    76    30    31 1   
    77    30    80 1   
    78    30    81 1   
    79    31    32 2   
    80    31    82 1   
    81    32    33 1   
    82    32    34 1   
    83    33    83 1   
    84    33    84 1   
    85    33    85 1   
    86    34    86 1   
    87    34    87 1   
    88    34    88 1   
@<TRIPOS>SUBSTRUCTURE
     1 UQ5         1 TEMP              0 ****  ****    0 ROOT
