@<TRIPOS>MOLECULE
UQ6
  103   103     1     0     0
SMALL
abcg2


@<TRIPOS>ATOM
      1 C1           1.7240    -2.0390     3.3410 ca         1 UQ6      -0.070300
      2 C1M          1.6120    -3.5270     3.5300 c3         1 UQ6      -0.040800
      3 C2           0.9030    -1.1830     4.0770 ca         1 UQ6       0.110100
      4 O2           0.0270    -1.7010     4.9700 oh         1 UQ6      -0.547100
      5 C3           0.9910     0.1990     3.9080 ca         1 UQ6       0.016100
      6 C4           1.8730     0.7410     2.9820 ca         1 UQ6       0.088100
      7 C5           2.6910    -0.1070     2.2410 ca         1 UQ6       0.093100
      8 O5           3.5400     0.4740     1.3530 oh         1 UQ6      -0.536100
      9 C6           2.6500    -1.4890     2.4440 ca         1 UQ6      -0.114300
     10 O3           0.1660     1.0050     4.6310 os         1 UQ6      -0.363100
     11 C3M          0.7360     1.5000     5.8360 c3         1 UQ6       0.146900
     12 O4           1.9400     2.0880     2.8170 os         1 UQ6      -0.339100
     13 C4M          1.0540     2.5880     1.8270 c3         1 UQ6       0.152900
     14 C7           3.6080    -2.3540     1.6550 c3         1 UQ6       0.000100
     15 C8           3.2720    -2.3410     0.1900 c2         1 UQ6      -0.239200
     16 C9           4.0600    -2.0150    -0.8430 c2         1 UQ6      -0.114400
     17 C10          5.5070    -1.6320    -0.7320 c3         1 UQ6      -0.063900
     18 C11          3.4850    -1.9950    -2.2350 c3         1 UQ6      -0.043200
     19 C12          3.1320    -0.5740    -2.6990 c3         1 UQ6      -0.036200
     20 C13          2.3820    -0.5840    -3.9930 c2         1 UQ6      -0.225200
     21 C14          2.6730     0.0340    -5.1410 c2         1 UQ6      -0.108400
     22 C15          3.8810     0.8930    -5.3720 c3         1 UQ6      -0.053900
     23 C16          1.7130    -0.0660    -6.2970 c3         1 UQ6      -0.039200
     24 C17          0.8500     1.1990    -6.4530 c3         1 UQ6      -0.039200
     25 C18         -0.2370     1.0310    -7.4740 c2         1 UQ6      -0.221200
     26 C19         -1.4590     0.5550    -7.2210 c2         1 UQ6      -0.113400
     27 C20         -2.4950     0.4210    -8.2970 c3         1 UQ6      -0.053900
     28 C21         -1.8950     0.1500    -5.8370 c3         1 UQ6      -0.041200
     29 C22         -2.5740     1.2970    -5.0690 c3         1 UQ6      -0.035200
     30 C23         -2.8370     0.9240    -3.6430 c2         1 UQ6      -0.222200
     31 C24         -3.9860     0.5240    -3.0910 c2         1 UQ6      -0.112400
     32 C25         -5.2780     0.3800    -3.8400 c3         1 UQ6      -0.054900
     33 C26         -4.0350     0.1800    -1.6260 c3         1 UQ6      -0.038200
     34 C27         -4.8700     1.1670    -0.7950 c3         1 UQ6      -0.036200
     35 C28         -4.8480     0.8110     0.6590 c2         1 UQ6      -0.224200
     36 C29         -4.2570     1.4690     1.6600 c2         1 UQ6      -0.109400
     37 C30         -3.5080     2.7610     1.5030 c3         1 UQ6      -0.055900
     38 C31         -4.2960     0.9160     3.0610 c3         1 UQ6      -0.037200
     39 C32         -2.9390     0.3570     3.5180 c3         1 UQ6      -0.040200
     40 C33         -2.9610    -0.0760     4.9500 c2         1 UQ6      -0.224200
     41 C34         -3.1190    -1.3170     5.4250 c2         1 UQ6      -0.123400
     42 C35         -3.1540    -1.5810     6.9030 c3         1 UQ6      -0.058900
     43 C36         -3.2790    -2.5390     4.5710 c3         1 UQ6      -0.058900
     44 H1M1         1.5550    -4.0500     2.5750 hc         1 UQ6       0.046033
     45 H1M2         2.4740    -3.9320     4.0650 hc         1 UQ6       0.046033
     46 H1M3         0.7240    -3.7950     4.0970 hc         1 UQ6       0.046033
     47 HO2         -0.6940    -1.0730     5.1290 ho         1 UQ6       0.486000
     48 HO5          3.6330    -0.1020     0.5820 ho         1 UQ6       0.467000
     49 H3M1        -0.0510     2.0300     6.3690 h1         1 UQ6       0.040367
     50 H3M2         1.1060     0.6910     6.4710 h1         1 UQ6       0.040367
     51 H3M3         1.5560     2.1940     5.6360 h1         1 UQ6       0.040367
     52 H4M1         1.1630     3.6710     1.8130 h1         1 UQ6       0.035367
     53 H4M2         1.2920     2.1980     0.8350 h1         1 UQ6       0.035367
     54 H4M3         0.0130     2.3440     2.0580 h1         1 UQ6       0.035367
     55 H71          4.6330    -2.0220     1.8330 hc         1 UQ6       0.061700
     56 H72          3.5710    -3.3810     2.0190 hc         1 UQ6       0.061700
     57 H8           2.2440    -2.6170    -0.0340 ha         1 UQ6       0.175000
     58 H101         5.8570    -1.5350     0.2940 hc         1 UQ6       0.045033
     59 H102         6.1300    -2.3860    -1.2190 hc         1 UQ6       0.045033
     60 H103         5.7090    -0.6880    -1.2420 hc         1 UQ6       0.045033
     61 H111         4.1940    -2.4370    -2.9420 hc         1 UQ6       0.049200
     62 H112         2.5830    -2.6110    -2.2690 hc         1 UQ6       0.049200
     63 H121         2.4950    -0.1160    -1.9320 hc         1 UQ6       0.046200
     64 H122         4.0320     0.0400    -2.7540 hc         1 UQ6       0.046200
     65 H13          1.4690    -1.1770    -3.9700 ha         1 UQ6       0.164000
     66 H151         4.5640     0.9130    -4.5270 hc         1 UQ6       0.039700
     67 H152         4.4380     0.5390    -6.2440 hc         1 UQ6       0.039700
     68 H153         3.5950     1.9250    -5.5880 hc         1 UQ6       0.039700
     69 H161         2.2540    -0.2480    -7.2310 hc         1 UQ6       0.046200
     70 H162         1.0480    -0.9210    -6.1510 hc         1 UQ6       0.046200
     71 H171         0.4270     1.4500    -5.4770 hc         1 UQ6       0.045700
     72 H172         1.4830     2.0430    -6.7350 hc         1 UQ6       0.045700
     73 H18          0.0120     1.2990    -8.4970 ha         1 UQ6       0.168000
     74 H201        -2.1440     0.8070    -9.2540 hc         1 UQ6       0.039033
     75 H202        -2.7820    -0.6240    -8.4390 hc         1 UQ6       0.039033
     76 H203        -3.4100     0.9580    -8.0340 hc         1 UQ6       0.039033
     77 H211        -2.5960    -0.6870    -5.9000 hc         1 UQ6       0.046200
     78 H212        -1.0460    -0.2130    -5.2510 hc         1 UQ6       0.046200
     79 H221        -1.9110     2.1670    -5.0870 hc         1 UQ6       0.045700
     80 H222        -3.4870     1.5990    -5.5850 hc         1 UQ6       0.045700
     81 H23         -1.9620     0.9570    -2.9980 ha         1 UQ6       0.165000
     82 H251        -5.1820     0.5870    -4.9040 hc         1 UQ6       0.038700
     83 H252        -5.6660    -0.6360    -3.7320 hc         1 UQ6       0.038700
     84 H253        -6.0480     1.0450    -3.4410 hc         1 UQ6       0.038700
     85 H261        -4.4470    -0.8280    -1.4970 hc         1 UQ6       0.045200
     86 H262        -3.0210     0.1550    -1.2210 hc         1 UQ6       0.045200
     87 H271        -4.4980     2.1780    -0.9690 hc         1 UQ6       0.045700
     88 H272        -5.9060     1.1540    -1.1470 hc         1 UQ6       0.045700
     89 H28         -5.3590    -0.1170     0.9080 ha         1 UQ6       0.164000
     90 H301        -3.5070     3.1390     0.4830 hc         1 UQ6       0.039367
     91 H302        -3.9390     3.5350     2.1430 hc         1 UQ6       0.039367
     92 H303        -2.4650     2.6550     1.8110 hc         1 UQ6       0.039367
     93 H311        -4.6090     1.7020     3.7570 hc         1 UQ6       0.044700
     94 H312        -5.0440     0.1220     3.1310 hc         1 UQ6       0.044700
     95 H321        -2.6540    -0.4600     2.8530 hc         1 UQ6       0.051700
     96 H322        -2.1710     1.1240     3.4050 hc         1 UQ6       0.051700
     97 H33         -2.8820     0.7300     5.6770 ha         1 UQ6       0.166000
     98 H351        -4.1120    -2.0160     7.1970 hc         1 UQ6       0.040867
     99 H352        -2.3850    -2.3030     7.1910 hc         1 UQ6       0.040867
    100 H353        -3.0010    -0.6730     7.4860 hc         1 UQ6       0.040867
    101 H361        -3.2330    -2.3340     3.5030 hc         1 UQ6       0.040867
    102 H362        -2.5060    -3.2760     4.8030 hc         1 UQ6       0.040867
    103 H363        -4.2390    -3.0190     4.7760 hc         1 UQ6       0.040867
@<TRIPOS>BOND
     1     1     2 1   
     2     1     3 ar  
     3     1     9 ar  
     4     2    44 1   
     5     2    45 1   
     6     2    46 1   
     7     3     4 1   
     8     3     5 ar  
     9     4    47 1   
    10     5     6 ar  
    11     5    10 1   
    12     6     7 ar  
    13     6    12 1   
    14     7     8 1   
    15     7     9 ar  
    16     8    48 1   
    17     9    14 1   
    18    10    11 1   
    19    11    49 1   
    20    11    50 1   
    21    11    51 1   
    22    12    13 1   
    23    13    52 1   
    24    13    53 1   
    25    13    54 1   
    26    14    15 1   
    27    14    55 1   
    28    14    56 1   
    29    15    16 2   
    30    15    57 1   
    31    16    17 1   
    32    16    18 1   
    33    17    58 1   
    34    17    59 1   
    35    17    60 1   
    36    18    19 1   
    37    18    61 1   
    38    18    62 1   
    39    19    20 1   
    40    19    63 1   
    41    19    64 1   
    42    20    21 2   
    43    20    65 1   
    44    21    22 1   
    45    21    23 1   
    46    22    66 1   
    47    22    67 1   
    48    22    68 1   
    49    23    24 1   
    50    23    69 1   
    51    23    70 1   
    52    24    25 1   
    53    24    71 1   
    54    24    72 1   
    55    25    26 2   
    56    25    73 1   
    57    26    27 1   
    58    26    28 1   
    59    27    74 1   
    60    27    75 1   
    61    27    76 1   
    62    28    29 1   
    63    28    77 1   
    64    28    78 1   
    65    29    30 1   
    66    29    79 1   
    67    29    80 1   
    68    30    31 2   
    69    30    81 1   
    70    31    32 1   
    71    31    33 1   
    72    32    82 1   
    73    32    83 1   
    74    32    84 1   
    75    33    34 1   
    76    33    85 1   
    77    33    86 1   
    78    34    35 1   
    79    34    87 1   
    80    34    88 1   
    81    35    36 2   
    82    35    89 1   
    83    36    37 1   
    84    36    38 1   
    85    37    90 1   
    86    37    91 1   
    87    37    92 1   
    88    38    39 1   
    89    38    93 1   
    90    38    94 1   
    91    39    40 1   
    92    39    95 1   
    93    39    96 1   
    94    40    41 2   
    95    40    97 1   
    96    41    42 1   
    97    41    43 1   
    98    42    98 1   
    99    42    99 1   
   100    42   100 1   
   101    43   101 1   
   102    43   102 1   
   103    43   103 1   
@<TRIPOS>SUBSTRUCTURE
     1 UQ6         1 TEMP              0 ****  ****    0 ROOT
