@<TRIPOS>MOLECULE
UQ6
  103   103     1     0     0
SMALL
No Charge or Current Charge


@<TRIPOS>ATOM
      1 C1           1.7850    -2.2770     3.5760 ca         1 UQ6      -0.070300
      2 C1M          1.7100    -3.8010     3.7500 c3         1 UQ6      -0.040800
      3 C2           1.0350    -1.4270     4.4250 ca         1 UQ6       0.110100
      4 O2           0.2440    -1.9390     5.4150 oh         1 UQ6      -0.547100
      5 C3           1.0720    -0.0250     4.2940 ca         1 UQ6       0.016100
      6 C4           1.8550     0.5530     3.2560 ca         1 UQ6       0.088100
      7 C5           2.6280    -0.2910     2.4170 ca         1 UQ6       0.093100
      8 O5           3.4240     0.2470     1.4400 oh         1 UQ6      -0.536100
      9 C6           2.6120    -1.6990     2.5750 ca         1 UQ6      -0.114300
     10 O3           0.3080     0.6890     5.2200 os         1 UQ6      -0.363100
     11 C3M          0.2480     2.1240     5.3050 c3         1 UQ6       0.146900
     12 O4           1.8890     1.9220     3.0660 os         1 UQ6      -0.339100
     13 C4M          1.3220     2.4970     1.8750 c3         1 UQ6       0.152900
     14 C7           3.5180    -2.5540     1.6670 c3         1 UQ6       0.000100
     15 C8           3.1360    -2.4220     0.2020 c2         1 UQ6      -0.239200
     16 C9           3.8770    -1.9770    -0.8340 c2         1 UQ6      -0.114400
     17 C10          5.3260    -1.5070    -0.7710 c3         1 UQ6      -0.063900
     18 C11          3.3000    -1.9000    -2.2400 c3         1 UQ6      -0.043200
     19 C12          2.7970    -0.4870    -2.6010 c3         1 UQ6      -0.036200
     20 C13          2.0970    -0.4580    -3.9480 c2         1 UQ6      -0.225200
     21 C14          2.5490     0.0280    -5.1200 c2         1 UQ6      -0.108400
     22 C15          3.9230     0.6390    -5.3630 c3         1 UQ6      -0.053900
     23 C16          1.6750     0.0220    -6.3660 c3         1 UQ6      -0.039200
     24 C17          0.9410     1.3650    -6.5730 c3         1 UQ6      -0.039200
     25 C18         -0.2090     1.2570    -7.5590 c2         1 UQ6      -0.221200
     26 C19         -1.4700     0.8780    -7.2790 c2         1 UQ6      -0.113400
     27 C20         -2.5670     0.8460    -8.3290 c3         1 UQ6      -0.053900
     28 C21         -1.9470     0.4300    -5.9000 c3         1 UQ6      -0.041200
     29 C22         -2.6440     1.5510    -5.1020 c3         1 UQ6      -0.035200
     30 C23         -2.8330     1.1670    -3.6460 c2         1 UQ6      -0.222200
     31 C24         -3.8430     0.4620    -3.1020 c2         1 UQ6      -0.112400
     32 C25         -5.0230    -0.1140    -3.8760 c3         1 UQ6      -0.054900
     33 C26         -3.8720     0.1190    -1.6190 c3         1 UQ6      -0.038200
     34 C27         -4.9370     0.9020    -0.8230 c3         1 UQ6      -0.036200
     35 C28         -4.8130     0.6640     0.6720 c2         1 UQ6      -0.224200
     36 C29         -4.0640     1.3520     1.5550 c2         1 UQ6      -0.109400
     37 C30         -3.1610     2.5310     1.2070 c3         1 UQ6      -0.055900
     38 C31         -4.0630     1.0170     3.0410 c3         1 UQ6      -0.037200
     39 C32         -2.7730     0.3130     3.5120 c3         1 UQ6      -0.040200
     40 C33         -2.8470    -0.0890     4.9760 c2         1 UQ6      -0.224200
     41 C34         -3.1410    -1.2980     5.4910 c2         1 UQ6      -0.123400
     42 C35         -3.1390    -1.5630     6.9850 c3         1 UQ6      -0.058900
     43 C36         -3.5040    -2.5390     4.6890 c3         1 UQ6      -0.058900
     44 H1M1         1.4550    -4.2920     2.8030 hc         1 UQ6       0.046033
     45 H1M2         2.6700    -4.2030     4.0930 hc         1 UQ6       0.046033
     46 H1M3         0.9530    -4.1220     4.4730 hc         1 UQ6       0.046033
     47 HO2         -0.2250    -1.1650     5.8000 ho         1 UQ6       0.486000
     48 HO5          3.6760    -0.4890     0.8400 ho         1 UQ6       0.467000
     49 H3M1        -0.3870     2.4250     6.1470 h1         1 UQ6       0.040367
     50 H3M2         1.2470     2.5500     5.4690 h1         1 UQ6       0.040367
     51 H3M3        -0.1840     2.5550     4.3930 h1         1 UQ6       0.040367
     52 H4M1         1.3710     3.5920     1.9220 h1         1 UQ6       0.035367
     53 H4M2         1.8560     2.1740     0.9740 h1         1 UQ6       0.035367
     54 H4M3         0.2690     2.2070     1.7730 h1         1 UQ6       0.035367
     55 H71          4.5590    -2.2680     1.8490 hc         1 UQ6       0.061700
     56 H72          3.4950    -3.6150     1.9300 hc         1 UQ6       0.061700
     57 H8           2.1050    -2.7340     0.0170 ha         1 UQ6       0.175000
     58 H101         5.7720    -1.5880     0.2240 hc         1 UQ6       0.045033
     59 H102         5.9560    -2.1000    -1.4460 hc         1 UQ6       0.045033
     60 H103         5.4170    -0.4580    -1.0780 hc         1 UQ6       0.045033
     61 H111         4.0360    -2.2310    -2.9830 hc         1 UQ6       0.049200
     62 H112         2.4540    -2.5930    -2.3300 hc         1 UQ6       0.049200
     63 H121         2.0960    -0.1550    -1.8250 hc         1 UQ6       0.046200
     64 H122         3.6320     0.2190    -2.5620 hc         1 UQ6       0.046200
     65 H13          1.0860    -0.8680    -3.9000 ha         1 UQ6       0.164000
     66 H151         4.5840     0.5680    -4.4940 hc         1 UQ6       0.039700
     67 H152         4.4350     0.1320    -6.1890 hc         1 UQ6       0.039700
     68 H153         3.8410     1.7000    -5.6260 hc         1 UQ6       0.039700
     69 H161         2.2580    -0.2260    -7.2620 hc         1 UQ6       0.046200
     70 H162         0.9230    -0.7710    -6.2760 hc         1 UQ6       0.046200
     71 H171         0.5670     1.7150    -5.6040 hc         1 UQ6       0.045700
     72 H172         1.6580     2.1250    -6.9080 hc         1 UQ6       0.045700
     73 H18          0.0570     1.5570    -8.5750 ha         1 UQ6       0.168000
     74 H201        -2.1970     1.1640    -9.3110 hc         1 UQ6       0.039033
     75 H202        -2.9740    -0.1650    -8.4450 hc         1 UQ6       0.039033
     76 H203        -3.3950     1.5120    -8.0600 hc         1 UQ6       0.039033
     77 H211        -2.6200    -0.4320    -5.9860 hc         1 UQ6       0.046200
     78 H212        -1.1010     0.0720    -5.3040 hc         1 UQ6       0.046200
     79 H221        -2.0370     2.4630    -5.1610 hc         1 UQ6       0.045700
     80 H222        -3.6020     1.7960    -5.5740 hc         1 UQ6       0.045700
     81 H23         -2.0230     1.5220    -3.0060 ha         1 UQ6       0.165000
     82 H251        -4.9390     0.0460    -4.9560 hc         1 UQ6       0.038700
     83 H252        -5.1030    -1.1960    -3.7210 hc         1 UQ6       0.038700
     84 H253        -5.9680     0.3400    -3.5560 hc         1 UQ6       0.038700
     85 H261        -4.0320    -0.9570    -1.4780 hc         1 UQ6       0.045200
     86 H262        -2.8930     0.3330    -1.1720 hc         1 UQ6       0.045200
     87 H271        -4.8510     1.9690    -1.0600 hc         1 UQ6       0.045700
     88 H272        -5.9380     0.6040    -1.1590 hc         1 UQ6       0.045700
     89 H28         -5.4290    -0.1650     1.0230 ha         1 UQ6       0.164000
     90 H301        -3.1630     2.7720     0.1390 hc         1 UQ6       0.039367
     91 H302        -3.4720     3.4350     1.7430 hc         1 UQ6       0.039367
     92 H303        -2.1190     2.3280     1.4770 hc         1 UQ6       0.039367
     93 H311        -4.2190     1.9260     3.6360 hc         1 UQ6       0.044700
     94 H312        -4.9090     0.3590     3.2740 hc         1 UQ6       0.044700
     95 H321        -2.5810    -0.5520     2.8680 hc         1 UQ6       0.051700
     96 H322        -1.9160     0.9810     3.3660 hc         1 UQ6       0.051700
     97 H33         -2.6060     0.7340     5.6510 ha         1 UQ6       0.166000
     98 H351        -4.1300    -1.8830     7.3310 hc         1 UQ6       0.040867
     99 H352        -2.4230    -2.3520     7.2460 hc         1 UQ6       0.040867
    100 H353        -2.8650    -0.6690     7.5580 hc         1 UQ6       0.040867
    101 H361        -3.6060    -2.3440     3.6160 hc         1 UQ6       0.040867
    102 H362        -2.7440    -3.3200     4.8100 hc         1 UQ6       0.040867
    103 H363        -4.4620    -2.9550     5.0250 hc         1 UQ6       0.040867
@<TRIPOS>BOND
     1     1     2 1   
     2     1     3 ar  
     3     1     9 ar  
     4     2    44 1   
     5     2    45 1   
     6     2    46 1   
     7     3     4 1   
     8     3     5 ar  
     9     4    47 1   
    10     5     6 ar  
    11     5    10 1   
    12     6     7 ar  
    13     6    12 1   
    14     7     8 1   
    15     7     9 ar  
    16     8    48 1   
    17     9    14 1   
    18    10    11 1   
    19    11    49 1   
    20    11    50 1   
    21    11    51 1   
    22    12    13 1   
    23    13    52 1   
    24    13    53 1   
    25    13    54 1   
    26    14    15 1   
    27    14    55 1   
    28    14    56 1   
    29    15    16 2   
    30    15    57 1   
    31    16    17 1   
    32    16    18 1   
    33    17    58 1   
    34    17    59 1   
    35    17    60 1   
    36    18    19 1   
    37    18    61 1   
    38    18    62 1   
    39    19    20 1   
    40    19    63 1   
    41    19    64 1   
    42    20    21 2   
    43    20    65 1   
    44    21    22 1   
    45    21    23 1   
    46    22    66 1   
    47    22    67 1   
    48    22    68 1   
    49    23    24 1   
    50    23    69 1   
    51    23    70 1   
    52    24    25 1   
    53    24    71 1   
    54    24    72 1   
    55    25    26 2   
    56    25    73 1   
    57    26    27 1   
    58    26    28 1   
    59    27    74 1   
    60    27    75 1   
    61    27    76 1   
    62    28    29 1   
    63    28    77 1   
    64    28    78 1   
    65    29    30 1   
    66    29    79 1   
    67    29    80 1   
    68    30    31 2   
    69    30    81 1   
    70    31    32 1   
    71    31    33 1   
    72    32    82 1   
    73    32    83 1   
    74    32    84 1   
    75    33    34 1   
    76    33    85 1   
    77    33    86 1   
    78    34    35 1   
    79    34    87 1   
    80    34    88 1   
    81    35    36 2   
    82    35    89 1   
    83    36    37 1   
    84    36    38 1   
    85    37    90 1   
    86    37    91 1   
    87    37    92 1   
    88    38    39 1   
    89    38    93 1   
    90    38    94 1   
    91    39    40 1   
    92    39    95 1   
    93    39    96 1   
    94    40    41 2   
    95    40    97 1   
    96    41    42 1   
    97    41    43 1   
    98    42    98 1   
    99    42    99 1   
   100    42   100 1   
   101    43   101 1   
   102    43   102 1   
   103    43   103 1   
@<TRIPOS>SUBSTRUCTURE
     1 UQ6         1 TEMP              0 ****  ****    0 ROOT
