@<TRIPOS>MOLECULE
UQ7
  114   114     1     0     0
SMALL
No Charge or Current Charge


@<TRIPOS>ATOM
      1 C1          -0.5410     0.5420   -11.2560 c          1 UQ7       0.542500
      2 C2           0.2290     1.7360   -11.7310 cc         1 UQ7       0.015900
      3 C3           1.5940     1.6930   -11.9800 cd         1 UQ7       0.012900
      4 C4           2.3780     0.4200   -11.7660 c          1 UQ7       0.539500
      5 C5           1.6190    -0.7700   -11.2630 cc         1 UQ7      -0.133400
      6 C6           0.2430    -0.7190   -11.0470 cd         1 UQ7      -0.131400
      7 CM2         -1.7070     3.3100   -11.7810 c3         1 UQ7       0.153900
      8 CM3          3.5660     3.0380   -12.7340 c3         1 UQ7       0.153900
      9 CM5          2.4660    -2.0160   -11.0320 c3         1 UQ7      -0.054900
     10 C7          -0.5750    -1.9120   -10.5670 c3         1 UQ7       0.005000
     11 C8          -0.7010    -1.8930    -9.0520 c2         1 UQ7      -0.237200
     12 C9          -1.8160    -1.8340    -8.2960 c2         1 UQ7      -0.085400
     13 C10         -3.2500    -1.8160    -8.8140 c3         1 UQ7      -0.056900
     14 C11         -1.7410    -1.7660    -6.7770 c3         1 UQ7      -0.041200
     15 C12         -2.0200    -0.3520    -6.2250 c3         1 UQ7      -0.036200
     16 C13         -1.8100    -0.2670    -4.7240 c2         1 UQ7      -0.222200
     17 C14         -0.6610    -0.0110    -4.0690 c2         1 UQ7      -0.111400
     18 C15          0.6910     0.2270    -4.7310 c3         1 UQ7      -0.054900
     19 C16         -0.6070     0.0890    -2.5510 c3         1 UQ7      -0.038200
     20 O1          -1.7490     0.5750   -11.0450 o          1 UQ7      -0.479100
     21 O2          -0.3150     2.9950   -11.9750 os         1 UQ7      -0.340100
     22 O3           2.1660     2.8840   -12.4280 os         1 UQ7      -0.341100
     23 O4           3.5820     0.3410   -11.9890 o          1 UQ7      -0.483100
     24 C17         -0.0520    -1.1840    -1.8780 c3         1 UQ7      -0.036200
     25 C18         -0.0780    -1.0870    -0.3640 c2         1 UQ7      -0.222200
     26 C19         -1.0910    -1.4080     0.4640 c2         1 UQ7      -0.111400
     27 C20         -2.4530    -1.9300     0.0220 c3         1 UQ7      -0.055900
     28 C21         -0.9600    -1.2860     1.9760 c3         1 UQ7      -0.038200
     29 C22         -1.6660    -0.0370     2.5480 c3         1 UQ7      -0.036200
     30 C23         -1.4090     0.1370     4.0340 c2         1 UQ7      -0.222200
     31 C24         -0.3770     0.7760     4.6190 c2         1 UQ7      -0.111400
     32 C25          0.7720     1.4480     3.8780 c3         1 UQ7      -0.055900
     33 C26         -0.2670     0.9060     6.1320 c3         1 UQ7      -0.038200
     34 C27          0.7380    -0.0870     6.7550 c3         1 UQ7      -0.036200
     35 C28          0.7570    -0.0100     8.2710 c2         1 UQ7      -0.222200
     36 C29         -0.0400    -0.6660     9.1370 c2         1 UQ7      -0.111400
     37 C30         -1.1610    -1.6210     8.7450 c3         1 UQ7      -0.054900
     38 C31          0.1250    -0.5290    10.6440 c3         1 UQ7      -0.038200
     39 C32         -0.9040     0.4280    11.2850 c3         1 UQ7      -0.036200
     40 C33         -0.6870     0.5790    12.7800 c2         1 UQ7      -0.222200
     41 C34          0.1350     1.4420    13.4090 c2         1 UQ7      -0.112400
     42 C35          1.0390     2.4550    12.7170 c3         1 UQ7      -0.055900
     43 C36          0.2350     1.4910    14.9270 c3         1 UQ7      -0.038200
     44 C37          1.4810     0.7610    15.4730 c3         1 UQ7      -0.035200
     45 C38          1.5030     0.7140    16.9910 c2         1 UQ7      -0.224200
     46 C39          0.9510    -0.2200    17.7890 c2         1 UQ7      -0.112400
     47 C40          1.0730    -0.1720    19.3010 c3         1 UQ7      -0.055900
     48 C41          0.1480    -1.4230    17.3150 c3         1 UQ7      -0.055900
     49 HM21        -1.8950     4.3610   -12.0330 h1         1 UQ7       0.044367
     50 HM22        -2.3430     2.6920   -12.4280 h1         1 UQ7       0.044367
     51 HM23        -2.0030     3.1570   -10.7360 h1         1 UQ7       0.044367
     52 HM31         3.7690     4.0660   -13.0590 h1         1 UQ7       0.044367
     53 HM32         4.1860     2.8390   -11.8510 h1         1 UQ7       0.044367
     54 HM33         3.8680     2.3650   -13.5470 h1         1 UQ7       0.044367
     55 HM51         3.4830    -1.7780   -10.7000 hc         1 UQ7       0.056700
     56 HM52         2.0470    -2.6600   -10.2500 hc         1 UQ7       0.056700
     57 HM53         2.5420    -2.6090   -11.9510 hc         1 UQ7       0.056700
     58 H71         -1.5480    -1.9300   -11.0670 hc         1 UQ7       0.064200
     59 H72         -0.1120    -2.8540   -10.8820 hc         1 UQ7       0.064200
     60 H8           0.2710    -1.9000    -8.5550 ha         1 UQ7       0.167000
     61 H101        -3.3280    -2.0050    -9.8880 hc         1 UQ7       0.044033
     62 H102        -3.8560    -2.5840    -8.3180 hc         1 UQ7       0.044033
     63 H103        -3.7260    -0.8460    -8.6250 hc         1 UQ7       0.044033
     64 H111        -2.4380    -2.4820    -6.3220 hc         1 UQ7       0.045700
     65 H112        -0.7420    -2.0700    -6.4390 hc         1 UQ7       0.045700
     66 H121        -1.3790     0.3690    -6.7470 hc         1 UQ7       0.048700
     67 H122        -3.0490    -0.0600    -6.4650 hc         1 UQ7       0.048700
     68 H13         -2.7290    -0.4230    -4.1550 ha         1 UQ7       0.164000
     69 H151         0.6550     0.1320    -5.8210 hc         1 UQ7       0.039033
     70 H152         1.0660     1.2330    -4.5060 hc         1 UQ7       0.039033
     71 H153         1.4390    -0.4920    -4.3780 hc         1 UQ7       0.039033
     72 H161        -0.0100     0.9570    -2.2440 hc         1 UQ7       0.045200
     73 H162        -1.6160     0.2670    -2.1560 hc         1 UQ7       0.045200
     74 H171        -0.6270    -2.0520    -2.2240 hc         1 UQ7       0.044700
     75 H172         0.9770    -1.3580    -2.2140 hc         1 UQ7       0.044700
     76 H18          0.8610    -0.7190     0.0550 ha         1 UQ7       0.165000
     77 H201        -2.5500    -2.0000    -1.0660 hc         1 UQ7       0.039033
     78 H202        -2.6400    -2.9310     0.4290 hc         1 UQ7       0.039033
     79 H203        -3.2620    -1.2760     0.3670 hc         1 UQ7       0.039033
     80 H211        -1.3480    -2.1850     2.4700 hc         1 UQ7       0.044700
     81 H212         0.1000    -1.2290     2.2510 hc         1 UQ7       0.044700
     82 H221        -1.3370     0.8470     1.9900 hc         1 UQ7       0.045700
     83 H222        -2.7460    -0.1130     2.3720 hc         1 UQ7       0.045700
     84 H23         -2.1840    -0.3130     4.6570 ha         1 UQ7       0.165000
     85 H251         0.6980     1.3450     2.7900 hc         1 UQ7       0.039367
     86 H252         0.8080     2.5220     4.0990 hc         1 UQ7       0.039367
     87 H253         1.7380     1.0180     4.1670 hc         1 UQ7       0.039367
     88 H261         0.0090     1.9310     6.4120 hc         1 UQ7       0.045200
     89 H262        -1.2480     0.7270     6.5910 hc         1 UQ7       0.045200
     90 H271         0.4920    -1.1020     6.4210 hc         1 UQ7       0.045200
     91 H272         1.7430     0.1160     6.3670 hc         1 UQ7       0.045200
     92 H28          1.5350     0.6520     8.6550 ha         1 UQ7       0.164000
     93 H301        -1.2920    -1.7030     7.6610 hc         1 UQ7       0.039033
     94 H302        -0.9670    -2.6310     9.1250 hc         1 UQ7       0.039033
     95 H303        -2.1240    -1.2930     9.1530 hc         1 UQ7       0.039033
     96 H311         0.0620    -1.5120    11.1280 hc         1 UQ7       0.045200
     97 H312         1.1280    -0.1480    10.8740 hc         1 UQ7       0.045200
     98 H321        -0.8510     1.4000    10.7820 hc         1 UQ7       0.045200
     99 H322        -1.9180     0.0530    11.1010 hc         1 UQ7       0.045200
    100 H33         -1.2930    -0.1100    13.3700 ha         1 UQ7       0.165000
    101 H351         0.9800     2.4030    11.6250 hc         1 UQ7       0.039033
    102 H352         0.7740     3.4790    13.0070 hc         1 UQ7       0.039033
    103 H353         2.0900     2.2960    12.9820 hc         1 UQ7       0.039033
    104 H361         0.2320     2.5300    15.2810 hc         1 UQ7       0.045700
    105 H362        -0.6530     1.0230    15.3710 hc         1 UQ7       0.045700
    106 H371         1.5140    -0.2510    15.0540 hc         1 UQ7       0.045200
    107 H372         2.3870     1.2610    15.1110 hc         1 UQ7       0.045200
    108 H38          2.0570     1.5420    17.4360 ha         1 UQ7       0.164000
    109 H401         1.5700    -1.0700    19.6860 hc         1 UQ7       0.038367
    110 H402         1.6560     0.6950    19.6360 hc         1 UQ7       0.038367
    111 H403         0.0860    -0.1060    19.7760 hc         1 UQ7       0.038367
    112 H411         0.0020    -1.4390    16.2290 hc         1 UQ7       0.038367
    113 H412         0.6450    -2.3600    17.5920 hc         1 UQ7       0.038367
    114 H413        -0.8510    -1.4300    17.7690 hc         1 UQ7       0.038367
@<TRIPOS>BOND
     1     1     2 1   
     2     1     6 1   
     3     1    20 2   
     4     2     3 2   
     5     2    21 1   
     6     3     4 1   
     7     3    22 1   
     8     4     5 1   
     9     4    23 2   
    10     5     6 2   
    11     5     9 1   
    12     6    10 1   
    13     7    21 1   
    14     7    49 1   
    15     7    50 1   
    16     7    51 1   
    17     8    22 1   
    18     8    52 1   
    19     8    53 1   
    20     8    54 1   
    21     9    55 1   
    22     9    56 1   
    23     9    57 1   
    24    10    11 1   
    25    10    58 1   
    26    10    59 1   
    27    11    12 2   
    28    11    60 1   
    29    12    13 1   
    30    12    14 1   
    31    13    61 1   
    32    13    62 1   
    33    13    63 1   
    34    14    15 1   
    35    14    64 1   
    36    14    65 1   
    37    15    16 1   
    38    15    66 1   
    39    15    67 1   
    40    16    17 2   
    41    16    68 1   
    42    17    18 1   
    43    17    19 1   
    44    18    69 1   
    45    18    70 1   
    46    18    71 1   
    47    19    24 1   
    48    19    72 1   
    49    19    73 1   
    50    24    25 1   
    51    24    74 1   
    52    24    75 1   
    53    25    26 2   
    54    25    76 1   
    55    26    27 1   
    56    26    28 1   
    57    27    77 1   
    58    27    78 1   
    59    27    79 1   
    60    28    29 1   
    61    28    80 1   
    62    28    81 1   
    63    29    30 1   
    64    29    82 1   
    65    29    83 1   
    66    30    31 2   
    67    30    84 1   
    68    31    32 1   
    69    31    33 1   
    70    32    85 1   
    71    32    86 1   
    72    32    87 1   
    73    33    34 1   
    74    33    88 1   
    75    33    89 1   
    76    34    35 1   
    77    34    90 1   
    78    34    91 1   
    79    35    36 2   
    80    35    92 1   
    81    36    37 1   
    82    36    38 1   
    83    37    93 1   
    84    37    94 1   
    85    37    95 1   
    86    38    39 1   
    87    38    96 1   
    88    38    97 1   
    89    39    40 1   
    90    39    98 1   
    91    39    99 1   
    92    40    41 2   
    93    40   100 1   
    94    41    42 1   
    95    41    43 1   
    96    42   101 1   
    97    42   102 1   
    98    42   103 1   
    99    43    44 1   
   100    43   104 1   
   101    43   105 1   
   102    44    45 1   
   103    44   106 1   
   104    44   107 1   
   105    45    46 2   
   106    45   108 1   
   107    46    47 1   
   108    46    48 1   
   109    47   109 1   
   110    47   110 1   
   111    47   111 1   
   112    48   112 1   
   113    48   113 1   
   114    48   114 1   
@<TRIPOS>SUBSTRUCTURE
     1 UQ7         1 TEMP              0 ****  ****    0 ROOT
