@<TRIPOS>MOLECULE
UQ7
  114   114     1     0     0
SMALL
abcg2


@<TRIPOS>ATOM
      1 C1          -0.3740     0.5380   -11.1440 c          1 UQ7       0.542500
      2 C2           0.8620     1.2250   -11.6020 cc         1 UQ7       0.015900
      3 C3           1.9750     0.5230   -11.8500 cd         1 UQ7       0.012900
      4 C4           2.0060    -0.9410   -11.6120 c          1 UQ7       0.539500
      5 C5           0.7810    -1.6290   -11.1240 cc         1 UQ7      -0.133400
      6 C6          -0.3520    -0.9330   -10.9240 cd         1 UQ7      -0.131400
      7 CM2          0.3430     3.0260   -13.0000 c3         1 UQ7       0.153900
      8 CM3          4.0580     1.4700   -11.3610 c3         1 UQ7       0.153900
      9 CM5          0.9380    -3.0960   -10.8870 c3         1 UQ7      -0.054900
     10 C7          -1.6280    -1.5250   -10.3960 c3         1 UQ7       0.005000
     11 C8          -1.6410    -1.4120    -8.8970 c2         1 UQ7      -0.237200
     12 C9          -2.4970    -0.7320    -8.1310 c2         1 UQ7      -0.085400
     13 C10         -3.6750     0.0410    -8.6420 c3         1 UQ7      -0.056900
     14 C11         -2.2960    -0.6970    -6.6390 c3         1 UQ7      -0.041200
     15 C12         -1.8460     0.6830    -6.1310 c3         1 UQ7      -0.036200
     16 C13         -1.6580     0.6830    -4.6460 c2         1 UQ7      -0.222200
     17 C14         -0.5140     0.7570    -3.9590 c2         1 UQ7      -0.111400
     18 C15          0.8440     0.9010    -4.5790 c3         1 UQ7      -0.054900
     19 C16         -0.5340     0.6710    -2.4550 c3         1 UQ7      -0.038200
     20 O1          -1.3770     1.1910   -10.9550 o          1 UQ7      -0.479100
     21 O2           0.8100     2.5590   -11.7350 os         1 UQ7      -0.340100
     22 O3           3.0870     1.0950   -12.3380 os         1 UQ7      -0.341100
     23 O4           3.0270    -1.5590   -11.8250 o          1 UQ7      -0.483100
     24 C17         -0.0020    -0.6710    -1.9230 c3         1 UQ7      -0.036200
     25 C18          0.0140    -0.7080    -0.4260 c2         1 UQ7      -0.222200
     26 C19         -0.8990    -1.2480     0.3860 c2         1 UQ7      -0.111400
     27 C20         -2.1300    -1.9630    -0.0880 c3         1 UQ7      -0.055900
     28 C21         -0.7470    -1.1420     1.8800 c3         1 UQ7      -0.038200
     29 C22         -1.6990    -0.1110     2.5110 c3         1 UQ7      -0.036200
     30 C23         -1.5540    -0.0720     4.0000 c2         1 UQ7      -0.222200
     31 C24         -0.9460     0.8600     4.7400 c2         1 UQ7      -0.111400
     32 C25         -0.3140     2.1030     4.1850 c3         1 UQ7      -0.055900
     33 C26         -0.8370     0.6940     6.2330 c3         1 UQ7      -0.038200
     34 C27          0.5920     0.3620     6.6970 c3         1 UQ7      -0.036200
     35 C28          0.6820     0.2880     8.1890 c2         1 UQ7      -0.222200
     36 C29          0.8290    -0.7960     8.9560 c2         1 UQ7      -0.111400
     37 C30          0.9680    -2.1960     8.4340 c3         1 UQ7      -0.054900
     38 C31          0.8450    -0.6610    10.4560 c3         1 UQ7      -0.038200
     39 C32         -0.4590    -1.1390    11.1170 c3         1 UQ7      -0.036200
     40 C33         -0.3900    -1.0270    12.6080 c2         1 UQ7      -0.222200
     41 C34         -0.9020    -0.0630    13.3780 c2         1 UQ7      -0.112400
     42 C35         -1.7110     1.0910    12.8610 c3         1 UQ7      -0.055900
     43 C36         -0.6600    -0.0680    14.8650 c3         1 UQ7      -0.038200
     44 C37          0.4170     0.9450    15.2900 c3         1 UQ7      -0.035200
     45 C38          0.5790     0.9910    16.7770 c2         1 UQ7      -0.224200
     46 C39          1.6190     0.5760    17.5060 c2         1 UQ7      -0.112400
     47 C40          1.6040     0.6800    19.0040 c3         1 UQ7      -0.055900
     48 C41          2.8760    -0.0190    16.9430 c3         1 UQ7      -0.055900
     49 HM21         0.3500     4.1120   -12.9550 h1         1 UQ7       0.044367
     50 HM22         1.0020     2.7000   -13.8070 h1         1 UQ7       0.044367
     51 HM23        -0.6730     2.6880   -13.2070 h1         1 UQ7       0.044367
     52 HM31         4.8590     1.9770   -11.8920 h1         1 UQ7       0.044367
     53 HM32         3.6300     2.1540   -10.6240 h1         1 UQ7       0.044367
     54 HM33         4.4690     0.6000   -10.8460 h1         1 UQ7       0.044367
     55 HM51         1.7170    -3.2840   -10.1470 hc         1 UQ7       0.056700
     56 HM52         0.0240    -3.5580   -10.5290 hc         1 UQ7       0.056700
     57 HM53         1.2400    -3.6080   -11.8020 hc         1 UQ7       0.056700
     58 H71         -2.4790    -1.0170   -10.8440 hc         1 UQ7       0.064200
     59 H72         -1.7030    -2.5730   -10.6910 hc         1 UQ7       0.064200
     60 H8          -0.8260    -1.9370    -8.4030 ha         1 UQ7       0.167000
     61 H101        -3.8410    -0.0780    -9.7100 hc         1 UQ7       0.044033
     62 H102        -4.5850    -0.2770    -8.1260 hc         1 UQ7       0.044033
     63 H103        -3.5620     1.1090    -8.4460 hc         1 UQ7       0.044033
     64 H111        -3.2260    -0.9750    -6.1330 hc         1 UQ7       0.045700
     65 H112        -1.5450    -1.4360    -6.3470 hc         1 UQ7       0.045700
     66 H121        -0.9330     0.9700    -6.6560 hc         1 UQ7       0.048700
     67 H122        -2.6030     1.4300    -6.3900 hc         1 UQ7       0.048700
     68 H13         -2.5760     0.5740    -4.0720 ha         1 UQ7       0.164000
     69 H151         0.8110     1.0490    -5.6570 hc         1 UQ7       0.039033
     70 H152         1.3770     1.7490    -4.1430 hc         1 UQ7       0.039033
     71 H153         1.4620     0.0190    -4.3920 hc         1 UQ7       0.039033
     72 H161         0.0630     1.4840    -2.0270 hc         1 UQ7       0.045200
     73 H162        -1.5540     0.8080    -2.0890 hc         1 UQ7       0.045200
     74 H171        -0.6070    -1.4770    -2.3420 hc         1 UQ7       0.044700
     75 H172         1.0160    -0.8330    -2.2880 hc         1 UQ7       0.044700
     76 H18          0.8590    -0.2030     0.0380 ha         1 UQ7       0.165000
     77 H201        -2.2390    -1.9620    -1.1710 hc         1 UQ7       0.039033
     78 H202        -2.1220    -3.0040     0.2450 hc         1 UQ7       0.039033
     79 H203        -3.0320    -1.5130     0.3310 hc         1 UQ7       0.039033
     80 H211        -0.9320    -2.1200     2.3390 hc         1 UQ7       0.044700
     81 H212         0.2780    -0.8640     2.1350 hc         1 UQ7       0.044700
     82 H221        -1.5010     0.8640     2.0620 hc         1 UQ7       0.045700
     83 H222        -2.7320    -0.3660     2.2570 hc         1 UQ7       0.045700
     84 H23         -1.9630    -0.9350     4.5230 ha         1 UQ7       0.165000
     85 H251        -0.4740     2.2280     3.1170 hc         1 UQ7       0.039367
     86 H252        -0.7070     2.9900     4.6880 hc         1 UQ7       0.039367
     87 H253         0.7660     2.1060     4.3520 hc         1 UQ7       0.039367
     88 H261        -1.1640     1.6130     6.7320 hc         1 UQ7       0.045200
     89 H262        -1.5040    -0.1030     6.5720 hc         1 UQ7       0.045200
     90 H271         0.9080    -0.5690     6.2230 hc         1 UQ7       0.045200
     91 H272         1.2760     1.1370     6.3410 hc         1 UQ7       0.045200
     92 H28          0.5820     1.2460     8.6960 ha         1 UQ7       0.164000
     93 H301         0.9250    -2.2600     7.3480 hc         1 UQ7       0.039033
     94 H302         1.9170    -2.6330     8.7570 hc         1 UQ7       0.039033
     95 H303         0.1820    -2.8430     8.8300 hc         1 UQ7       0.039033
     96 H311         1.6820    -1.2320    10.8720 hc         1 UQ7       0.045200
     97 H312         1.0120     0.3820    10.7350 hc         1 UQ7       0.045200
     98 H321        -1.2910    -0.5650    10.7040 hc         1 UQ7       0.045200
     99 H322        -0.6440    -2.1830    10.8470 hc         1 UQ7       0.045200
    100 H33          0.1840    -1.8080    13.1030 ha         1 UQ7       0.165000
    101 H351        -1.7660     1.1270    11.7750 hc         1 UQ7       0.039033
    102 H352        -2.7330     1.0460    13.2460 hc         1 UQ7       0.039033
    103 H353        -1.2980     2.0440    13.1990 hc         1 UQ7       0.039033
    104 H361        -1.5920     0.1620    15.3940 hc         1 UQ7       0.045700
    105 H362        -0.3480    -1.0620    15.1920 hc         1 UQ7       0.045700
    106 H371         1.3520     0.6890    14.7890 hc         1 UQ7       0.045200
    107 H372         0.1380     1.9410    14.9340 hc         1 UQ7       0.045200
    108 H38         -0.2760     1.3970    17.3140 ha         1 UQ7       0.164000
    109 H401         2.4180     1.3170    19.3600 hc         1 UQ7       0.038367
    110 H402         0.6660     1.0890    19.3800 hc         1 UQ7       0.038367
    111 H403         1.7560    -0.2990    19.4660 hc         1 UQ7       0.038367
    112 H411         2.8930    -0.0560    15.8570 hc         1 UQ7       0.038367
    113 H412         3.7490     0.5490    17.2730 hc         1 UQ7       0.038367
    114 H413         3.0160    -1.0380    17.3130 hc         1 UQ7       0.038367
@<TRIPOS>BOND
     1     1     2 1   
     2     1     6 1   
     3     1    20 2   
     4     2     3 2   
     5     2    21 1   
     6     3     4 1   
     7     3    22 1   
     8     4     5 1   
     9     4    23 2   
    10     5     6 2   
    11     5     9 1   
    12     6    10 1   
    13     7    21 1   
    14     7    49 1   
    15     7    50 1   
    16     7    51 1   
    17     8    22 1   
    18     8    52 1   
    19     8    53 1   
    20     8    54 1   
    21     9    55 1   
    22     9    56 1   
    23     9    57 1   
    24    10    11 1   
    25    10    58 1   
    26    10    59 1   
    27    11    12 2   
    28    11    60 1   
    29    12    13 1   
    30    12    14 1   
    31    13    61 1   
    32    13    62 1   
    33    13    63 1   
    34    14    15 1   
    35    14    64 1   
    36    14    65 1   
    37    15    16 1   
    38    15    66 1   
    39    15    67 1   
    40    16    17 2   
    41    16    68 1   
    42    17    18 1   
    43    17    19 1   
    44    18    69 1   
    45    18    70 1   
    46    18    71 1   
    47    19    24 1   
    48    19    72 1   
    49    19    73 1   
    50    24    25 1   
    51    24    74 1   
    52    24    75 1   
    53    25    26 2   
    54    25    76 1   
    55    26    27 1   
    56    26    28 1   
    57    27    77 1   
    58    27    78 1   
    59    27    79 1   
    60    28    29 1   
    61    28    80 1   
    62    28    81 1   
    63    29    30 1   
    64    29    82 1   
    65    29    83 1   
    66    30    31 2   
    67    30    84 1   
    68    31    32 1   
    69    31    33 1   
    70    32    85 1   
    71    32    86 1   
    72    32    87 1   
    73    33    34 1   
    74    33    88 1   
    75    33    89 1   
    76    34    35 1   
    77    34    90 1   
    78    34    91 1   
    79    35    36 2   
    80    35    92 1   
    81    36    37 1   
    82    36    38 1   
    83    37    93 1   
    84    37    94 1   
    85    37    95 1   
    86    38    39 1   
    87    38    96 1   
    88    38    97 1   
    89    39    40 1   
    90    39    98 1   
    91    39    99 1   
    92    40    41 2   
    93    40   100 1   
    94    41    42 1   
    95    41    43 1   
    96    42   101 1   
    97    42   102 1   
    98    42   103 1   
    99    43    44 1   
   100    43   104 1   
   101    43   105 1   
   102    44    45 1   
   103    44   106 1   
   104    44   107 1   
   105    45    46 2   
   106    45   108 1   
   107    46    47 1   
   108    46    48 1   
   109    47   109 1   
   110    47   110 1   
   111    47   111 1   
   112    48   112 1   
   113    48   113 1   
   114    48   114 1   
@<TRIPOS>SUBSTRUCTURE
     1 UQ7         1 TEMP              0 ****  ****    0 ROOT
