@<TRIPOS>MOLECULE
UQ8
  127   127     1     0     0
SMALL
No Charge or Current Charge


@<TRIPOS>ATOM
      1 C45         21.3090     1.2200    -1.3690 c3         1 UQ8      -0.055900
      2 C44         19.8040     1.1280    -1.1920 c2         1 UQ8      -0.111400
      3 C46         19.2860    -0.2890    -1.3910 c3         1 UQ8      -0.055900
      4 C43         19.0470     2.2000    -0.8910 c2         1 UQ8      -0.224200
      5 C42         17.5400     2.2470    -0.7150 c3         1 UQ8      -0.035200
      6 C41         17.1100     1.9300     0.7340 c3         1 UQ8      -0.038200
      7 C39         15.5990     1.8740     0.9130 c2         1 UQ8      -0.111400
      8 C40         14.9510     3.2540     0.9230 c3         1 UQ8      -0.054900
      9 C38         14.9460     0.7040     1.0610 c2         1 UQ8      -0.222200
     10 C37         13.4500     0.4780     1.2220 c3         1 UQ8      -0.036200
     11 C36         12.9620    -0.7780     0.4660 c3         1 UQ8      -0.038200
     12 C34         11.4540    -0.9720     0.5380 c2         1 UQ8      -0.111400
     13 C35         10.9910    -1.5630     1.8650 c3         1 UQ8      -0.054900
     14 C33         10.6450    -0.6560    -0.4920 c2         1 UQ8      -0.222200
     15 C32          9.1390    -0.8280    -0.5740 c3         1 UQ8      -0.036200
     16 C31          8.3810     0.3820     0.0140 c3         1 UQ8      -0.038200
     17 C29          6.8710     0.1940     0.0290 c2         1 UQ8      -0.111400
     18 C30          6.2260     0.4260    -1.3320 c3         1 UQ8      -0.055900
     19 C28          6.2060    -0.1300     1.1560 c2         1 UQ8      -0.222200
     20 C27          4.7090    -0.3140     1.3260 c3         1 UQ8      -0.036200
     21 C26          4.2550    -1.7510     0.9910 c3         1 UQ8      -0.038200
     22 C24          2.7440    -1.9330     1.0540 c2         1 UQ8      -0.111400
     23 C25          2.2140    -1.9970     2.4820 c3         1 UQ8      -0.054900
     24 C23          1.9970    -2.0400    -0.0630 c2         1 UQ8      -0.223200
     25 C22          0.4880    -2.1970    -0.1700 c3         1 UQ8      -0.035200
     26 C21         -0.1030    -1.3970    -1.3530 c3         1 UQ8      -0.038200
     27 C19         -1.6220    -1.4660    -1.4240 c2         1 UQ8      -0.111400
     28 C20         -2.1330    -2.7730    -2.0190 c3         1 UQ8      -0.054900
     29 C18         -2.4000    -0.4490    -1.0080 c2         1 UQ8      -0.222200
     30 C17         -3.9160    -0.3630    -1.0530 c3         1 UQ8      -0.036200
     31 C16         -4.5730    -0.9920     0.1940 c3         1 UQ8      -0.038200
     32 C14         -6.0930    -1.0060     0.1270 c2         1 UQ8      -0.110400
     33 C15         -6.7180     0.3450     0.4540 c3         1 UQ8      -0.055900
     34 C13         -6.7810    -2.1240    -0.1790 c2         1 UQ8      -0.223200
     35 C12         -8.2880    -2.2930    -0.2480 c3         1 UQ8      -0.035200
     36 C11         -8.8540    -1.9120    -1.6330 c3         1 UQ8      -0.042200
     37 C9         -10.3740    -1.9600    -1.6910 c2         1 UQ8      -0.088400
     38 C10        -10.9180    -3.3820    -1.7660 c3         1 UQ8      -0.057900
     39 C8         -11.1160    -0.8350    -1.6830 c2         1 UQ8      -0.237200
     40 C7         -12.6300    -0.7000    -1.6980 c3         1 UQ8       0.004000
     41 C6         -13.0980     0.3800    -0.7310 cc         1 UQ8      -0.131400
     42 C1         -13.3470     1.6980    -1.1070 cd         1 UQ8      -0.133400
     43 C1M        -13.1440     2.2050    -2.5320 c3         1 UQ8      -0.054900
     44 C2         -13.8460     2.7140    -0.1240 c          1 UQ8       0.539500
     45 O2         -14.0920     3.8620    -0.4790 o          1 UQ8      -0.483100
     46 C3         -14.0230     2.2470     1.2890 cc         1 UQ8       0.013900
     47 O3         -14.4650     3.0410     2.3440 os         1 UQ8      -0.340100
     48 C3M        -14.8080     4.4320     2.2030 c3         1 UQ8       0.153900
     49 C4         -13.7530     0.9430     1.6830 cd         1 UQ8       0.015900
     50 O4         -13.9610     0.6650     3.0340 os         1 UQ8      -0.340100
     51 C4M        -13.7350    -0.6260     3.6330 c3         1 UQ8       0.153900
     52 C5         -13.2720    -0.0820     0.6850 c          1 UQ8       0.542500
     53 O5         -13.0300    -1.2430     0.9980 o          1 UQ8      -0.481100
     54 H45         21.6090     0.9020    -2.3740 hc         1 UQ8       0.038367
     55 H45A        21.6740     2.2450    -1.2260 hc         1 UQ8       0.038367
     56 H45B        21.8320     0.5820    -0.6460 hc         1 UQ8       0.038367
     57 H46         19.7860    -0.9870    -0.7090 hc         1 UQ8       0.038367
     58 H46A        18.2110    -0.3800    -1.2080 hc         1 UQ8       0.038367
     59 H46B        19.4740    -0.6350    -2.4150 hc         1 UQ8       0.038367
     60 H43         19.5220     3.1750    -0.7640 ha         1 UQ8       0.163000
     61 H42         17.1710     3.2400    -0.9980 hc         1 UQ8       0.045700
     62 H42A        17.0470     1.5430    -1.3960 hc         1 UQ8       0.045700
     63 H41         17.5540     0.9670     1.0140 hc         1 UQ8       0.044700
     64 H41A        17.5510     2.6690     1.4150 hc         1 UQ8       0.044700
     65 H40         15.4590     3.9210     1.6310 hc         1 UQ8       0.039033
     66 H40A        15.0000     3.7230    -0.0670 hc         1 UQ8       0.039033
     67 H40B        13.8980     3.2320     1.2200 hc         1 UQ8       0.039033
     68 H38         15.5190    -0.2250     1.0530 ha         1 UQ8       0.164000
     69 H37         13.2150     0.3700     2.2870 hc         1 UQ8       0.045700
     70 H37A        12.8740     1.3350     0.8580 hc         1 UQ8       0.045700
     71 H36         13.2730    -0.6800    -0.5820 hc         1 UQ8       0.044700
     72 H36A        13.4800    -1.6650     0.8490 hc         1 UQ8       0.044700
     73 H35         11.4420    -2.5480     2.0340 hc         1 UQ8       0.039033
     74 H35A        11.2730    -0.9200     2.7070 hc         1 UQ8       0.039033
     75 H35B         9.9050    -1.6910     1.9200 hc         1 UQ8       0.039033
     76 H33         11.0770    -0.2370    -1.4030 ha         1 UQ8       0.164000
     77 H32          8.8460    -0.9710    -1.6200 hc         1 UQ8       0.045700
     78 H32A         8.8220    -1.7380    -0.0500 hc         1 UQ8       0.045700
     79 H31          8.7440     0.5430     1.0370 hc         1 UQ8       0.045200
     80 H31A         8.6510     1.2890    -0.5420 hc         1 UQ8       0.045200
     81 H30          6.6300    -0.2600    -2.0860 hc         1 UQ8       0.039367
     82 H30A         5.1420     0.2760    -1.3220 hc         1 UQ8       0.039367
     83 H30B         6.4090     1.4480    -1.6830 hc         1 UQ8       0.039367
     84 H28          6.7630    -0.2750     2.0830 ha         1 UQ8       0.165000
     85 H27          4.4290    -0.0730     2.3590 hc         1 UQ8       0.045700
     86 H27A         4.1560     0.3930     0.6970 hc         1 UQ8       0.045700
     87 H26          4.6170    -1.9930    -0.0160 hc         1 UQ8       0.045200
     88 H26A         4.7560    -2.4580     1.6630 hc         1 UQ8       0.045200
     89 H25          2.7760    -2.7270     3.0770 hc         1 UQ8       0.039367
     90 H25A         2.3010    -1.0250     2.9810 hc         1 UQ8       0.039367
     91 H25B         1.1630    -2.2970     2.5350 hc         1 UQ8       0.039367
     92 H23          2.4910    -1.9950    -1.0350 ha         1 UQ8       0.164000
     93 H22          0.2440    -3.2580    -0.2960 hc         1 UQ8       0.045200
     94 H22A        -0.0160    -1.8660     0.7450 hc         1 UQ8       0.045200
     95 H21          0.2160    -0.3530    -1.2440 hc         1 UQ8       0.045200
     96 H21A         0.3400    -1.7480    -2.2940 hc         1 UQ8       0.045200
     97 H20         -1.8000    -3.6360    -1.4310 hc         1 UQ8       0.039367
     98 H20A        -3.2260    -2.8250    -2.0590 hc         1 UQ8       0.039367
     99 H20B        -1.7650    -2.9080    -3.0430 hc         1 UQ8       0.039367
    100 H18         -1.9350     0.4480    -0.5960 ha         1 UQ8       0.164000
    101 H17         -4.2180     0.6870    -1.1370 hc         1 UQ8       0.045700
    102 H17A        -4.3070    -0.8570    -1.9510 hc         1 UQ8       0.045700
    103 H16         -4.1970    -2.0180     0.2920 hc         1 UQ8       0.045700
    104 H16A        -4.2320    -0.4640     1.0940 hc         1 UQ8       0.045700
    105 H15         -6.4550     0.6640     1.4690 hc         1 UQ8       0.039033
    106 H15A        -6.3710     1.1210    -0.2380 hc         1 UQ8       0.039033
    107 H15B        -7.8110     0.3360     0.3910 hc         1 UQ8       0.039033
    108 H13         -6.2370    -3.0440    -0.3980 ha         1 UQ8       0.165000
    109 H12         -8.5490    -3.3330    -0.0200 hc         1 UQ8       0.046700
    110 H12A        -8.7830    -1.6880     0.5200 hc         1 UQ8       0.046700
    111 H11         -8.5050    -0.8990    -1.8730 hc         1 UQ8       0.046700
    112 H11A        -8.4170    -2.5650    -2.3990 hc         1 UQ8       0.046700
    113 H10        -10.4280    -3.9470    -2.5670 hc         1 UQ8       0.044367
    114 H10A       -10.7470    -3.9220    -0.8270 hc         1 UQ8       0.044367
    115 H10B       -11.9920    -3.4220    -1.9710 hc         1 UQ8       0.044367
    116 H8         -10.6090     0.1300    -1.6350 ha         1 UQ8       0.167000
    117 H7         -12.9630    -0.4710    -2.7160 hc         1 UQ8       0.065700
    118 H7A        -13.1280    -1.6470    -1.4670 hc         1 UQ8       0.065700
    119 H1M        -14.0360     2.0190    -3.1430 hc         1 UQ8       0.056700
    120 H1MA       -12.9270     3.2780    -2.5790 hc         1 UQ8       0.056700
    121 H1MB       -12.2960     1.7130    -3.0210 hc         1 UQ8       0.056700
    122 H3M        -13.9470     5.0160     1.8560 h1         1 UQ8       0.044367
    123 H3MA       -15.6380     4.5620     1.4960 h1         1 UQ8       0.044367
    124 H3MB       -15.1250     4.8430     3.1700 h1         1 UQ8       0.044367
    125 H4M        -12.6860    -0.9310     3.5280 h1         1 UQ8       0.044367
    126 H4MA       -13.9670    -0.5880     4.7050 h1         1 UQ8       0.044367
    127 H4MB       -14.3800    -1.3890     3.1790 h1         1 UQ8       0.044367
@<TRIPOS>BOND
     1     1     2 1   
     2     1    54 1   
     3     1    55 1   
     4     1    56 1   
     5     2     3 1   
     6     2     4 2   
     7     3    57 1   
     8     3    58 1   
     9     3    59 1   
    10     4     5 1   
    11     4    60 1   
    12     5     6 1   
    13     5    61 1   
    14     5    62 1   
    15     6     7 1   
    16     6    63 1   
    17     6    64 1   
    18     7     8 1   
    19     7     9 2   
    20     8    65 1   
    21     8    66 1   
    22     8    67 1   
    23     9    10 1   
    24     9    68 1   
    25    10    11 1   
    26    10    69 1   
    27    10    70 1   
    28    11    12 1   
    29    11    71 1   
    30    11    72 1   
    31    12    13 1   
    32    12    14 2   
    33    13    73 1   
    34    13    74 1   
    35    13    75 1   
    36    14    15 1   
    37    14    76 1   
    38    15    16 1   
    39    15    77 1   
    40    15    78 1   
    41    16    17 1   
    42    16    79 1   
    43    16    80 1   
    44    17    18 1   
    45    17    19 2   
    46    18    81 1   
    47    18    82 1   
    48    18    83 1   
    49    19    20 1   
    50    19    84 1   
    51    20    21 1   
    52    20    85 1   
    53    20    86 1   
    54    21    22 1   
    55    21    87 1   
    56    21    88 1   
    57    22    23 1   
    58    22    24 2   
    59    23    89 1   
    60    23    90 1   
    61    23    91 1   
    62    24    25 1   
    63    24    92 1   
    64    25    26 1   
    65    25    93 1   
    66    25    94 1   
    67    26    27 1   
    68    26    95 1   
    69    26    96 1   
    70    27    28 1   
    71    27    29 2   
    72    28    97 1   
    73    28    98 1   
    74    28    99 1   
    75    29    30 1   
    76    29   100 1   
    77    30    31 1   
    78    30   101 1   
    79    30   102 1   
    80    31    32 1   
    81    31   103 1   
    82    31   104 1   
    83    32    33 1   
    84    32    34 2   
    85    33   105 1   
    86    33   106 1   
    87    33   107 1   
    88    34    35 1   
    89    34   108 1   
    90    35    36 1   
    91    35   109 1   
    92    35   110 1   
    93    36    37 1   
    94    36   111 1   
    95    36   112 1   
    96    37    38 1   
    97    37    39 2   
    98    38   113 1   
    99    38   114 1   
   100    38   115 1   
   101    39    40 1   
   102    39   116 1   
   103    40    41 1   
   104    40   117 1   
   105    40   118 1   
   106    41    42 2   
   107    41    52 1   
   108    42    43 1   
   109    42    44 1   
   110    43   119 1   
   111    43   120 1   
   112    43   121 1   
   113    44    45 2   
   114    44    46 1   
   115    46    47 1   
   116    46    49 2   
   117    47    48 1   
   118    48   122 1   
   119    48   123 1   
   120    48   124 1   
   121    49    50 1   
   122    49    52 1   
   123    50    51 1   
   124    51   125 1   
   125    51   126 1   
   126    51   127 1   
   127    52    53 2   
@<TRIPOS>SUBSTRUCTURE
     1 UQ8         1 TEMP              0 ****  ****    0 ROOT
