@<TRIPOS>MOLECULE
UQ8
  127   127     1     0     0
SMALL
bcc


@<TRIPOS>ATOM
      1 C45         21.1790     1.3540    -1.8060 c3         1 UQ8      -0.055900
      2 C44         19.6840     1.2320    -1.7480 c2         1 UQ8      -0.111400
      3 C46         19.0680     0.6200    -2.9710 c3         1 UQ8      -0.055900
      4 C43         19.0010     1.6530    -0.6800 c2         1 UQ8      -0.174200
      5 C42         17.5250     1.5990    -0.4430 c3         1 UQ8      -0.035200
      6 C41         17.1740     0.6520     0.7160 c3         1 UQ8      -0.038200
      7 C39         15.7030     0.6220     1.0380 c2         1 UQ8      -0.111400
      8 C40         15.1360     1.9050     1.5750 c3         1 UQ8      -0.054900
      9 C38         14.9920    -0.4910     0.8400 c2         1 UQ8      -0.172200
     10 C37         13.5290    -0.7090     1.0660 c3         1 UQ8      -0.036200
     11 C36         12.7850    -0.9260    -0.2610 c3         1 UQ8      -0.038200
     12 C34         11.3120    -1.1860    -0.0910 c2         1 UQ8      -0.111400
     13 C35         10.9570    -2.4800     0.5810 c3         1 UQ8      -0.054900
     14 C33         10.4200    -0.2900    -0.5220 c2         1 UQ8      -0.172200
     15 C32          8.9280    -0.3450    -0.4260 c3         1 UQ8      -0.036200
     16 C31          8.3860     0.6600     0.6050 c3         1 UQ8      -0.038200
     17 C29          6.8820     0.7430     0.6040 c2         1 UQ8      -0.111400
     18 C30          6.2840     1.4780    -0.5590 c3         1 UQ8      -0.055900
     19 C28          6.1710     0.1720     1.5800 c2         1 UQ8      -0.172200
     20 C27          4.6810     0.0980     1.7030 c3         1 UQ8      -0.036200
     21 C26          4.1560    -1.2900     1.2990 c3         1 UQ8      -0.038200
     22 C24          2.6550    -1.4020     1.3470 c2         1 UQ8      -0.111400
     23 C25          2.0380    -1.2600     2.7070 c3         1 UQ8      -0.054900
     24 C23          1.9650    -1.6010     0.2210 c2         1 UQ8      -0.173200
     25 C22          0.4810    -1.7020     0.0490 c3         1 UQ8      -0.035200
     26 C21         -0.1060    -0.4080    -0.5400 c3         1 UQ8      -0.038200
     27 C19         -1.5750    -0.5080    -0.8600 c2         1 UQ8      -0.111400
     28 C20         -1.9180    -1.3790    -2.0330 c3         1 UQ8      -0.054900
     29 C18         -2.4690     0.1530    -0.1200 c2         1 UQ8      -0.172200
     30 C17         -3.9580     0.1670    -0.2570 c3         1 UQ8      -0.036200
     31 C16         -4.6460    -0.5280     0.9290 c3         1 UQ8      -0.038200
     32 C14         -6.1500    -0.5090     0.8350 c2         1 UQ8      -0.110400
     33 C15         -6.7920     0.8320     1.0330 c3         1 UQ8      -0.055900
     34 C13         -6.8160    -1.6380     0.5800 c2         1 UQ8      -0.173200
     35 C12         -8.2900    -1.8210     0.4010 c3         1 UQ8      -0.035200
     36 C11         -8.6480    -2.0930    -1.0710 c3         1 UQ8      -0.042200
     37 C9         -10.1210    -2.3200    -1.2820 c2         1 UQ8      -0.088400
     38 C10        -10.6620    -3.5990    -0.7180 c3         1 UQ8      -0.057900
     39 C8         -10.8480    -1.3990    -1.9180 c2         1 UQ8      -0.187200
     40 C7         -12.3300    -1.4020    -2.1740 c3         1 UQ8       0.004000
     41 C6         -12.9570    -0.2710    -1.4090 cc         1 UQ8      -0.131400
     42 C1         -13.1050     0.9770    -1.8890 cd         1 UQ8      -0.133400
     43 C1M        -12.7070     1.4200    -3.2590 c3         1 UQ8      -0.054900
     44 C2         -13.6800     2.0460    -1.0290 c          1 UQ8       0.539500
     45 O2         -13.8360     3.1710    -1.4520 o          1 UQ8      -0.483100
     46 C3         -14.0450     1.7360     0.3760 cc         1 UQ8       0.013900
     47 O3         -14.4900     2.7480     1.1360 os         1 UQ8      -0.316900
     48 C3M        -15.8870     3.0190     1.0310 c3         1 UQ8       0.130700
     49 C4         -13.9010     0.4930     0.8520 cd         1 UQ8       0.015900
     50 O4         -14.2760     0.1570     2.0950 os         1 UQ8      -0.316900
     51 C4M        -13.2320     0.1660     3.0690 c3         1 UQ8       0.130700
     52 C5         -13.3500    -0.5850    -0.0090 c          1 UQ8       0.542500
     53 O5         -13.2470    -1.7050     0.4430 o          1 UQ8      -0.481100
     54 H45         21.4880     1.9940    -2.6370 hc         1 UQ8       0.038367
     55 H45A        21.5950     1.7690    -0.8880 hc         1 UQ8       0.038367
     56 H45B        21.6450     0.3800    -1.9780 hc         1 UQ8       0.038367
     57 H46         19.4610    -0.3870    -3.1340 hc         1 UQ8       0.038367
     58 H46A        17.9840     0.5490    -2.9260 hc         1 UQ8       0.038367
     59 H46B        19.3290     1.1980    -3.8620 hc         1 UQ8       0.038367
     60 H43         19.5740     2.0750     0.1430 ha         1 UQ8       0.113000
     61 H42         17.1700     2.6070    -0.2040 hc         1 UQ8       0.045700
     62 H42A        16.9810     1.2850    -1.3360 hc         1 UQ8       0.045700
     63 H41         17.5210    -0.3530     0.4630 hc         1 UQ8       0.044700
     64 H41A        17.7330     0.9650     1.6050 hc         1 UQ8       0.044700
     65 H40         15.7490     2.2770     2.4000 hc         1 UQ8       0.039033
     66 H40A        15.1300     2.6880     0.8140 hc         1 UQ8       0.039033
     67 H40B        14.1160     1.8030     1.9400 hc         1 UQ8       0.039033
     68 H38         15.5190    -1.3550     0.4380 ha         1 UQ8       0.114000
     69 H37         13.3980    -1.5870     1.7060 hc         1 UQ8       0.045700
     70 H37A        13.0720     0.1300     1.5950 hc         1 UQ8       0.045700
     71 H36         12.9350    -0.0480    -0.8930 hc         1 UQ8       0.044700
     72 H36A        13.2470    -1.7710    -0.7860 hc         1 UQ8       0.044700
     73 H35         11.4800    -3.3150     0.1100 hc         1 UQ8       0.039033
     74 H35A        11.2610    -2.4780     1.6300 hc         1 UQ8       0.039033
     75 H35B         9.8910    -2.6990     0.5560 hc         1 UQ8       0.039033
     76 H33         10.8080     0.6170    -0.9820 ha         1 UQ8       0.114000
     77 H32          8.5060    -0.1150    -1.4090 hc         1 UQ8       0.045700
     78 H32A         8.5720    -1.3420    -0.1640 hc         1 UQ8       0.045700
     79 H31          8.7490     0.3720     1.5940 hc         1 UQ8       0.045200
     80 H31A         8.8090     1.6480     0.3910 hc         1 UQ8       0.045200
     81 H30          6.6490     1.0780    -1.5070 hc         1 UQ8       0.039367
     82 H30A         5.1980     1.4350    -0.5860 hc         1 UQ8       0.039367
     83 H30B         6.5750     2.5320    -0.5380 hc         1 UQ8       0.039367
     84 H28          6.7230    -0.3380     2.3670 ha         1 UQ8       0.115000
     85 H27          4.3990     0.3070     2.7390 hc         1 UQ8       0.045700
     86 H27A         4.1860     0.8550     1.0920 hc         1 UQ8       0.045700
     87 H26          4.5100    -1.5150     0.2900 hc         1 UQ8       0.045200
     88 H26A         4.6040    -2.0410     1.9610 hc         1 UQ8       0.045200
     89 H25          2.5020    -1.9510     3.4160 hc         1 UQ8       0.039367
     90 H25A         2.1990    -0.2560     3.1060 hc         1 UQ8       0.039367
     91 H25B         0.9660    -1.4440     2.7140 hc         1 UQ8       0.039367
     92 H23          2.5340    -1.6690    -0.7040 ha         1 UQ8       0.114000
     93 H22          0.2650    -2.5380    -0.6230 hc         1 UQ8       0.045200
     94 H22A        -0.0260    -1.9230     0.9900 hc         1 UQ8       0.045200
     95 H21          0.0680     0.4050     0.1690 hc         1 UQ8       0.045200
     96 H21A         0.4480    -0.1540    -1.4510 hc         1 UQ8       0.045200
     97 H20         -1.6110    -2.4130    -1.8630 hc         1 UQ8       0.039367
     98 H20A        -2.9810    -1.3910    -2.2660 hc         1 UQ8       0.039367
     99 H20B        -1.3860    -1.0430    -2.9270 hc         1 UQ8       0.039367
    100 H18         -2.0850     0.7500     0.7060 ha         1 UQ8       0.114000
    101 H17         -4.2940     1.2070    -0.3120 hc         1 UQ8       0.045700
    102 H17A        -4.2840    -0.3100    -1.1830 hc         1 UQ8       0.045700
    103 H16         -4.2920    -1.5600     0.9830 hc         1 UQ8       0.045700
    104 H16A        -4.3270    -0.0390     1.8570 hc         1 UQ8       0.045700
    105 H15         -6.5260     1.2440     2.0100 hc         1 UQ8       0.039033
    106 H15A        -6.4400     1.5520     0.2910 hc         1 UQ8       0.039033
    107 H15B        -7.8780     0.8050     0.9680 hc         1 UQ8       0.039033
    108 H13         -6.2260    -2.5440     0.4530 ha         1 UQ8       0.115000
    109 H12         -8.6210    -2.6640     1.0150 hc         1 UQ8       0.046700
    110 H12A        -8.8530    -0.9510     0.7440 hc         1 UQ8       0.046700
    111 H11         -8.3090    -1.2450    -1.6720 hc         1 UQ8       0.046700
    112 H11A        -8.0850    -2.9680    -1.4150 hc         1 UQ8       0.046700
    113 H10        -10.0610    -4.4450    -1.0590 hc         1 UQ8       0.044367
    114 H10A       -10.6160    -3.6010     0.3730 hc         1 UQ8       0.044367
    115 H10B       -11.6950    -3.7890    -0.9990 hc         1 UQ8       0.044367
    116 H8         -10.3360    -0.5100    -2.2800 ha         1 UQ8       0.117000
    117 H7         -12.5220    -1.2820    -3.2410 hc         1 UQ8       0.065700
    118 H7A        -12.7890    -2.3450    -1.8820 hc         1 UQ8       0.065700
    119 H1M        -13.5550     1.8470    -3.7960 hc         1 UQ8       0.056700
    120 H1MA       -11.9440     2.1970    -3.2010 hc         1 UQ8       0.056700
    121 H1MB       -12.3050     0.6080    -3.8570 hc         1 UQ8       0.056700
    122 H3M        -16.1740     3.2860     0.0120 h1         1 UQ8       0.044367
    123 H3MA       -16.4800     2.1630     1.3570 h1         1 UQ8       0.044367
    124 H3MB       -16.0930     3.8620     1.6870 h1         1 UQ8       0.044367
    125 H4M        -12.8000     1.1640     3.1720 h1         1 UQ8       0.044367
    126 H4MA       -13.6830    -0.1230     4.0150 h1         1 UQ8       0.044367
    127 H4MB       -12.4410    -0.5430     2.8230 h1         1 UQ8       0.044367
@<TRIPOS>BOND
     1     1     2 1   
     2     1    54 1   
     3     1    55 1   
     4     1    56 1   
     5     2     3 1   
     6     2     4 2   
     7     3    57 1   
     8     3    58 1   
     9     3    59 1   
    10     4     5 1   
    11     4    60 1   
    12     5     6 1   
    13     5    61 1   
    14     5    62 1   
    15     6     7 1   
    16     6    63 1   
    17     6    64 1   
    18     7     8 1   
    19     7     9 2   
    20     8    65 1   
    21     8    66 1   
    22     8    67 1   
    23     9    10 1   
    24     9    68 1   
    25    10    11 1   
    26    10    69 1   
    27    10    70 1   
    28    11    12 1   
    29    11    71 1   
    30    11    72 1   
    31    12    13 1   
    32    12    14 2   
    33    13    73 1   
    34    13    74 1   
    35    13    75 1   
    36    14    15 1   
    37    14    76 1   
    38    15    16 1   
    39    15    77 1   
    40    15    78 1   
    41    16    17 1   
    42    16    79 1   
    43    16    80 1   
    44    17    18 1   
    45    17    19 2   
    46    18    81 1   
    47    18    82 1   
    48    18    83 1   
    49    19    20 1   
    50    19    84 1   
    51    20    21 1   
    52    20    85 1   
    53    20    86 1   
    54    21    22 1   
    55    21    87 1   
    56    21    88 1   
    57    22    23 1   
    58    22    24 2   
    59    23    89 1   
    60    23    90 1   
    61    23    91 1   
    62    24    25 1   
    63    24    92 1   
    64    25    26 1   
    65    25    93 1   
    66    25    94 1   
    67    26    27 1   
    68    26    95 1   
    69    26    96 1   
    70    27    28 1   
    71    27    29 2   
    72    28    97 1   
    73    28    98 1   
    74    28    99 1   
    75    29    30 1   
    76    29   100 1   
    77    30    31 1   
    78    30   101 1   
    79    30   102 1   
    80    31    32 1   
    81    31   103 1   
    82    31   104 1   
    83    32    33 1   
    84    32    34 2   
    85    33   105 1   
    86    33   106 1   
    87    33   107 1   
    88    34    35 1   
    89    34   108 1   
    90    35    36 1   
    91    35   109 1   
    92    35   110 1   
    93    36    37 1   
    94    36   111 1   
    95    36   112 1   
    96    37    38 1   
    97    37    39 2   
    98    38   113 1   
    99    38   114 1   
   100    38   115 1   
   101    39    40 1   
   102    39   116 1   
   103    40    41 1   
   104    40   117 1   
   105    40   118 1   
   106    41    42 2   
   107    41    52 1   
   108    42    43 1   
   109    42    44 1   
   110    43   119 1   
   111    43   120 1   
   112    43   121 1   
   113    44    45 2   
   114    44    46 1   
   115    46    47 1   
   116    46    49 2   
   117    47    48 1   
   118    48   122 1   
   119    48   123 1   
   120    48   124 1   
   121    49    50 1   
   122    49    52 1   
   123    50    51 1   
   124    51   125 1   
   125    51   126 1   
   126    51   127 1   
   127    52    53 2   
@<TRIPOS>SUBSTRUCTURE
     1 UQ8         1 TEMP              0 ****  ****    0 ROOT
