@<TRIPOS>MOLECULE
UQ9
  140   140     1     0     0
SMALL
No Charge or Current Charge


@<TRIPOS>ATOM
      1 C51         10.1740     5.6660     3.5130 c3         1 UQ9      -0.055900
      2 C49          9.5930     4.3040     3.1620 c2         1 UQ9      -0.113400
      3 C50         10.0050     3.2300     4.1520 c3         1 UQ9      -0.055900
      4 C48          8.8050     4.0430     2.1010 c2         1 UQ9      -0.223200
      5 C47          8.3050     5.0260     1.0580 c3         1 UQ9      -0.036200
      6 C46          9.3000     5.1990    -0.1090 c3         1 UQ9      -0.038200
      7 C44          8.8000     6.1840    -1.1600 c2         1 UQ9      -0.112400
      8 C45          9.2900     7.6020    -0.9160 c3         1 UQ9      -0.053900
      9 C43          7.9940     5.8730    -2.1930 c2         1 UQ9      -0.221200
     10 C42          7.3960     4.5170    -2.5310 c3         1 UQ9      -0.038200
     11 C41          5.8690     4.4870    -2.3010 c3         1 UQ9      -0.038200
     12 C39          5.2690     3.0970    -2.4710 c2         1 UQ9      -0.112400
     13 C40          5.1530     2.6800    -3.9330 c3         1 UQ9      -0.054900
     14 C38          4.8890     2.3590    -1.4080 c2         1 UQ9      -0.221200
     15 C37          4.3110     0.9530    -1.3890 c3         1 UQ9      -0.036200
     16 C36          5.0020     0.0560    -0.3380 c3         1 UQ9      -0.038200
     17 C34          4.5190    -1.3880    -0.3700 c2         1 UQ9      -0.111400
     18 C35          3.1670    -1.5820     0.3070 c3         1 UQ9      -0.055900
     19 C33          5.2490    -2.3680    -0.9370 c2         1 UQ9      -0.222200
     20 C32          4.9120    -3.8470    -1.0130 c3         1 UQ9      -0.037200
     21 C31          4.0250    -4.1800    -2.2320 c3         1 UQ9      -0.037200
     22 C29          3.5840    -5.6360    -2.2670 c2         1 UQ9      -0.113400
     23 C30          4.6590    -6.5750    -2.8010 c3         1 UQ9      -0.054900
     24 C28          2.3550    -6.0140    -1.8690 c2         1 UQ9      -0.221200
     25 C27          1.7670    -7.4130    -1.8780 c3         1 UQ9      -0.036200
     26 C26          2.1310    -8.2090    -0.6070 c3         1 UQ9      -0.038200
     27 C24          1.4440    -9.5700    -0.5530 c2         1 UQ9      -0.113400
     28 C25          2.2680   -10.6700    -1.2010 c3         1 UQ9      -0.053900
     29 C23          0.2310    -9.8060    -0.0140 c2         1 UQ9      -0.221200
     30 C22         -0.7120    -8.8020     0.6300 c3         1 UQ9      -0.038200
     31 C21         -1.8930    -8.4390    -0.2950 c3         1 UQ9      -0.038200
     32 C19         -2.6760    -7.2290     0.1960 c2         1 UQ9      -0.112400
     33 C20         -3.5900    -7.5570     1.3720 c3         1 UQ9      -0.053900
     34 C18         -2.5340    -6.0200    -0.3820 c2         1 UQ9      -0.222200
     35 C17         -3.1890    -4.7000    -0.0030 c3         1 UQ9      -0.035200
     36 C16         -2.1590    -3.5520     0.0940 c3         1 UQ9      -0.039200
     37 C14         -2.7690    -2.2350     0.5550 c2         1 UQ9      -0.109400
     38 C15         -3.5340    -1.5120    -0.5470 c3         1 UQ9      -0.055900
     39 C13         -2.6120    -1.7810     1.8140 c2         1 UQ9      -0.223200
     40 C12         -3.1280    -0.4780     2.3980 c3         1 UQ9      -0.036200
     41 C11         -4.5660    -0.6150     2.9450 c3         1 UQ9      -0.041200
     42 C9          -5.1600     0.7100     3.4030 c2         1 UQ9      -0.089400
     43 C10         -4.5810     1.1950     4.7280 c3         1 UQ9      -0.056900
     44 C8          -6.1030     1.3470     2.6830 c2         1 UQ9      -0.237200
     45 C7          -6.7650     2.6850     2.9700 c3         1 UQ9       0.004000
     46 C6          -6.9700     3.4860     1.6910 cc         1 UQ9      -0.132400
     47 C1          -8.1570     3.4810     0.9600 cd         1 UQ9      -0.132400
     48 C1M         -9.3670     2.6400     1.3540 c3         1 UQ9      -0.054900
     49 C2          -8.3220     4.3170    -0.2730 c          1 UQ9       0.539500
     50 O2          -9.3840     4.3270    -0.8870 o          1 UQ9      -0.484100
     51 C3          -7.1340     5.1250    -0.6980 cc         1 UQ9       0.013900
     52 O3          -7.0870     5.9520    -1.8180 os         1 UQ9      -0.338100
     53 C3M         -8.1940     6.1280    -2.7230 c3         1 UQ9       0.153900
     54 C4          -5.9380     5.1190     0.0070 cd         1 UQ9       0.014900
     55 O4          -4.9210     5.9150    -0.5220 os         1 UQ9      -0.338100
     56 C4M         -3.6070     6.0300     0.0570 c3         1 UQ9       0.152900
     57 C5          -5.7830     4.2930     1.2600 c          1 UQ9       0.542500
     58 O5          -4.7430     4.2710     1.9100 o          1 UQ9      -0.483100
     59 H51         11.2680     5.6190     3.5760 hc         1 UQ9       0.038200
     60 H51A         9.9310     6.4370     2.7740 hc         1 UQ9       0.038200
     61 H51B         9.8000     6.0130     4.4840 hc         1 UQ9       0.038200
     62 H50          9.6660     3.4770     5.1660 hc         1 UQ9       0.038200
     63 H50A         9.5800     2.2530     3.8930 hc         1 UQ9       0.038200
     64 H50B        11.0960     3.1160     4.1820 hc         1 UQ9       0.038200
     65 H48          8.4450     3.0260     1.9370 ha         1 UQ9       0.165000
     66 H47          7.3420     4.6810     0.6610 hc         1 UQ9       0.045200
     67 H47A         8.1040     6.0050     1.5100 hc         1 UQ9       0.045200
     68 H46         10.2720     5.5190     0.2880 hc         1 UQ9       0.045700
     69 H46A         9.4870     4.2170    -0.5570 hc         1 UQ9       0.045700
     70 H45         10.3850     7.6540    -0.9590 hc         1 UQ9       0.038700
     71 H45A         8.9000     8.3020    -1.6640 hc         1 UQ9       0.038700
     72 H45B         8.9760     7.9660     0.0700 hc         1 UQ9       0.038700
     73 H43          7.6900     6.6560    -2.8900 ha         1 UQ9       0.165000
     74 H42          7.6120     4.2740    -3.5790 hc         1 UQ9       0.046200
     75 H42A         7.8470     3.7160    -1.9360 hc         1 UQ9       0.046200
     76 H41          5.6750     4.8530    -1.2850 hc         1 UQ9       0.044700
     77 H41A         5.3820     5.2040    -2.9730 hc         1 UQ9       0.044700
     78 H40          6.1410     2.5210    -4.3790 hc         1 UQ9       0.039033
     79 H40A         4.5810     1.7590    -4.0760 hc         1 UQ9       0.039033
     80 H40B         4.6450     3.4540    -4.5220 hc         1 UQ9       0.039033
     81 H38          5.0150     2.7750    -0.4070 ha         1 UQ9       0.165000
     82 H37          3.2380     1.0070    -1.1660 hc         1 UQ9       0.045700
     83 H37A         4.4010     0.4600    -2.3620 hc         1 UQ9       0.045700
     84 H36          6.0820     0.0890    -0.5280 hc         1 UQ9       0.045200
     85 H36A         4.8610     0.4840     0.6630 hc         1 UQ9       0.045200
     86 H35          2.3910    -0.9750    -0.1740 hc         1 UQ9       0.039033
     87 H35A         2.8190    -2.6190     0.2740 hc         1 UQ9       0.039033
     88 H35B         3.2110    -1.2880     1.3620 hc         1 UQ9       0.039033
     89 H33          6.2080    -2.1250    -1.3970 ha         1 UQ9       0.165000
     90 H32          5.8390    -4.4310    -1.0630 hc         1 UQ9       0.045200
     91 H32A         4.4030    -4.1760    -0.0990 hc         1 UQ9       0.045200
     92 H31          3.1440    -3.5280    -2.1960 hc         1 UQ9       0.045700
     93 H31A         4.5550    -3.9140    -3.1550 hc         1 UQ9       0.045700
     94 H30          5.5660    -6.5290    -2.1870 hc         1 UQ9       0.038700
     95 H30A         4.3410    -7.6220    -2.8150 hc         1 UQ9       0.038700
     96 H30B         4.9390    -6.3080    -3.8270 hc         1 UQ9       0.038700
     97 H28          1.6560    -5.2610    -1.5000 ha         1 UQ9       0.165000
     98 H27          0.6760    -7.3470    -1.9590 hc         1 UQ9       0.045700
     99 H27A         2.0980    -7.9700    -2.7620 hc         1 UQ9       0.045700
    100 H26          3.2210    -8.3250    -0.5510 hc         1 UQ9       0.045700
    101 H26A         1.8680    -7.6050     0.2670 hc         1 UQ9       0.045700
    102 H25          3.2280   -10.7990    -0.6880 hc         1 UQ9       0.038700
    103 H25A         1.7500   -11.6360    -1.1740 hc         1 UQ9       0.038700
    104 H25B         2.4780   -10.4410    -2.2530 hc         1 UQ9       0.038700
    105 H23         -0.1750   -10.8190    -0.0310 ha         1 UQ9       0.166000
    106 H22         -1.0980    -9.2100     1.5710 hc         1 UQ9       0.046200
    107 H22A        -0.1910    -7.8770     0.8980 hc         1 UQ9       0.046200
    108 H21         -1.4910    -8.2360    -1.2950 hc         1 UQ9       0.045200
    109 H21A        -2.5510    -9.3100    -0.4120 hc         1 UQ9       0.045200
    110 H20         -3.0090    -7.8190     2.2630 hc         1 UQ9       0.038700
    111 H20A        -4.2520    -6.7310     1.6480 hc         1 UQ9       0.038700
    112 H20B        -4.2380    -8.4100     1.1370 hc         1 UQ9       0.038700
    113 H18         -1.8470    -5.9180    -1.2250 ha         1 UQ9       0.164000
    114 H17         -3.9440    -4.4450    -0.7550 hc         1 UQ9       0.046200
    115 H17A        -3.7150    -4.7630     0.9550 hc         1 UQ9       0.046200
    116 H16         -1.3750    -3.8630     0.7960 hc         1 UQ9       0.045200
    117 H16A        -1.6590    -3.4220    -0.8740 hc         1 UQ9       0.045200
    118 H15         -2.8750    -1.2760    -1.3910 hc         1 UQ9       0.039367
    119 H15A        -4.3560    -2.1280    -0.9310 hc         1 UQ9       0.039367
    120 H15B        -3.9800    -0.5710    -0.2110 hc         1 UQ9       0.039367
    121 H13         -2.0440    -2.3750     2.5320 ha         1 UQ9       0.166000
    122 H12         -2.4600    -0.1490     3.2030 hc         1 UQ9       0.045700
    123 H12A        -3.1050     0.3210     1.6490 hc         1 UQ9       0.045700
    124 H11         -5.1890    -1.0460     2.1520 hc         1 UQ9       0.047200
    125 H11A        -4.5780    -1.3460     3.7630 hc         1 UQ9       0.047200
    126 H10         -3.5330     1.4950     4.6160 hc         1 UQ9       0.044033
    127 H10A        -5.1220     2.0490     5.1450 hc         1 UQ9       0.044033
    128 H10B        -4.6200     0.4030     5.4860 hc         1 UQ9       0.044033
    129 H8          -6.4500     0.8980     1.7510 ha         1 UQ9       0.168000
    130 H7          -7.7240     2.5160     3.4740 hc         1 UQ9       0.065700
    131 H7A         -6.1900     3.2760     3.6910 hc         1 UQ9       0.065700
    132 H1M         -9.9870     3.1690     2.0880 hc         1 UQ9       0.056700
    133 H1MA       -10.0080     2.3830     0.5020 hc         1 UQ9       0.056700
    134 H1MB        -9.0690     1.6830     1.7960 hc         1 UQ9       0.056700
    135 H3M         -9.0630     6.5500    -2.2030 h1         1 UQ9       0.044033
    136 H3MA        -7.9160     6.8200    -3.5280 h1         1 UQ9       0.044033
    137 H3MB        -8.4800     5.1740    -3.1840 h1         1 UQ9       0.044033
    138 H4M         -3.6580     6.4410     1.0730 h1         1 UQ9       0.045033
    139 H4MA        -3.1030     5.0550     0.0860 h1         1 UQ9       0.045033
    140 H4MB        -2.9880     6.7070    -0.5460 h1         1 UQ9       0.045033
@<TRIPOS>BOND
     1     1     2 1   
     2     1    59 1   
     3     1    60 1   
     4     1    61 1   
     5     2     3 1   
     6     2     4 2   
     7     3    62 1   
     8     3    63 1   
     9     3    64 1   
    10     4     5 1   
    11     4    65 1   
    12     5     6 1   
    13     5    66 1   
    14     5    67 1   
    15     6     7 1   
    16     6    68 1   
    17     6    69 1   
    18     7     8 1   
    19     7     9 2   
    20     8    70 1   
    21     8    71 1   
    22     8    72 1   
    23     9    10 1   
    24     9    73 1   
    25    10    11 1   
    26    10    74 1   
    27    10    75 1   
    28    11    12 1   
    29    11    76 1   
    30    11    77 1   
    31    12    13 1   
    32    12    14 2   
    33    13    78 1   
    34    13    79 1   
    35    13    80 1   
    36    14    15 1   
    37    14    81 1   
    38    15    16 1   
    39    15    82 1   
    40    15    83 1   
    41    16    17 1   
    42    16    84 1   
    43    16    85 1   
    44    17    18 1   
    45    17    19 2   
    46    18    86 1   
    47    18    87 1   
    48    18    88 1   
    49    19    20 1   
    50    19    89 1   
    51    20    21 1   
    52    20    90 1   
    53    20    91 1   
    54    21    22 1   
    55    21    92 1   
    56    21    93 1   
    57    22    23 1   
    58    22    24 2   
    59    23    94 1   
    60    23    95 1   
    61    23    96 1   
    62    24    25 1   
    63    24    97 1   
    64    25    26 1   
    65    25    98 1   
    66    25    99 1   
    67    26    27 1   
    68    26   100 1   
    69    26   101 1   
    70    27    28 1   
    71    27    29 2   
    72    28   102 1   
    73    28   103 1   
    74    28   104 1   
    75    29    30 1   
    76    29   105 1   
    77    30    31 1   
    78    30   106 1   
    79    30   107 1   
    80    31    32 1   
    81    31   108 1   
    82    31   109 1   
    83    32    33 1   
    84    32    34 2   
    85    33   110 1   
    86    33   111 1   
    87    33   112 1   
    88    34    35 1   
    89    34   113 1   
    90    35    36 1   
    91    35   114 1   
    92    35   115 1   
    93    36    37 1   
    94    36   116 1   
    95    36   117 1   
    96    37    38 1   
    97    37    39 2   
    98    38   118 1   
    99    38   119 1   
   100    38   120 1   
   101    39    40 1   
   102    39   121 1   
   103    40    41 1   
   104    40   122 1   
   105    40   123 1   
   106    41    42 1   
   107    41   124 1   
   108    41   125 1   
   109    42    43 1   
   110    42    44 2   
   111    43   126 1   
   112    43   127 1   
   113    43   128 1   
   114    44    45 1   
   115    44   129 1   
   116    45    46 1   
   117    45   130 1   
   118    45   131 1   
   119    46    47 2   
   120    46    57 1   
   121    47    48 1   
   122    47    49 1   
   123    48   132 1   
   124    48   133 1   
   125    48   134 1   
   126    49    50 2   
   127    49    51 1   
   128    51    52 1   
   129    51    54 2   
   130    52    53 1   
   131    53   135 1   
   132    53   136 1   
   133    53   137 1   
   134    54    55 1   
   135    54    57 1   
   136    55    56 1   
   137    56   138 1   
   138    56   139 1   
   139    56   140 1   
   140    57    58 2   
@<TRIPOS>SUBSTRUCTURE
     1 UQ9         1 TEMP              0 ****  ****    0 ROOT
