@<TRIPOS>MOLECULE
UQ9
  140   140     1     0     0
SMALL
abcg2


@<TRIPOS>ATOM
      1 C51         12.9790     5.0050     2.0320 c3         1 UQ9      -0.055900
      2 C49         12.3810     3.7910     1.3850 c2         1 UQ9      -0.113400
      3 C50         13.3020     2.6060     1.3300 c3         1 UQ9      -0.055900
      4 C48         11.1460     3.7310     0.8810 c2         1 UQ9      -0.223200
      5 C47         10.1260     4.8250     0.8260 c3         1 UQ9      -0.036200
      6 C46          9.9620     5.3790    -0.6000 c3         1 UQ9      -0.038200
      7 C44          8.9480     6.4910    -0.6620 c2         1 UQ9      -0.112400
      8 C45          9.4940     7.8640    -0.3990 c3         1 UQ9      -0.053900
      9 C43          7.6470     6.2920    -0.8870 c2         1 UQ9      -0.221200
     10 C42          6.9570     4.9810    -1.0990 c3         1 UQ9      -0.038200
     11 C41          6.0380     4.6330     0.0830 c3         1 UQ9      -0.038200
     12 C39          5.3040     3.3300    -0.0980 c2         1 UQ9      -0.112400
     13 C40          4.2750     3.3210    -1.1910 c3         1 UQ9      -0.054900
     14 C38          5.5940     2.2820     0.6770 c2         1 UQ9      -0.221200
     15 C37          5.0100     0.9050     0.6300 c3         1 UQ9      -0.036200
     16 C36          6.0640    -0.1390     0.2300 c3         1 UQ9      -0.038200
     17 C34          5.5400    -1.5500     0.2070 c2         1 UQ9      -0.111400
     18 C35          5.0670    -2.0800     1.5300 c3         1 UQ9      -0.055900
     19 C33          5.5180    -2.2470    -0.9340 c2         1 UQ9      -0.222200
     20 C32          5.0300    -3.6450    -1.1450 c3         1 UQ9      -0.037200
     21 C31          3.7020    -3.6840    -1.9190 c3         1 UQ9      -0.037200
     22 C29          3.2250    -5.0930    -2.1620 c2         1 UQ9      -0.113400
     23 C30          3.9480    -5.8380    -3.2450 c3         1 UQ9      -0.054900
     24 C28          2.2370    -5.6010    -1.4210 c2         1 UQ9      -0.221200
     25 C27          1.6790    -6.9890    -1.4430 c3         1 UQ9      -0.036200
     26 C26          1.9910    -7.7340    -0.1350 c3         1 UQ9      -0.038200
     27 C24          1.3960    -9.1180    -0.1050 c2         1 UQ9      -0.113400
     28 C25          2.2800   -10.2060    -0.6420 c3         1 UQ9      -0.053900
     29 C23          0.1590    -9.3770     0.3270 c2         1 UQ9      -0.221200
     30 C22         -0.8410    -8.3820     0.8250 c3         1 UQ9      -0.038200
     31 C21         -2.0090    -8.2130    -0.1630 c3         1 UQ9      -0.038200
     32 C19         -2.9360    -7.0890     0.2170 c2         1 UQ9      -0.112400
     33 C20         -3.7340    -7.3040     1.4690 c3         1 UQ9      -0.053900
     34 C18         -2.9790    -5.9850    -0.5330 c2         1 UQ9      -0.222200
     35 C17         -3.7530    -4.7260    -0.3060 c3         1 UQ9      -0.035200
     36 C16         -2.8050    -3.5310    -0.1200 c3         1 UQ9      -0.039200
     37 C14         -3.5130    -2.2120     0.0430 c2         1 UQ9      -0.109400
     38 C15         -4.2280    -1.7100    -1.1770 c3         1 UQ9      -0.055900
     39 C13         -3.4750    -1.5670     1.2130 c2         1 UQ9      -0.223200
     40 C12         -4.1200    -0.2640     1.5660 c3         1 UQ9      -0.036200
     41 C11         -5.3290    -0.4540     2.4970 c3         1 UQ9      -0.041200
     42 C9          -5.9860     0.8520     2.8610 c2         1 UQ9      -0.089400
     43 C10         -5.1790     1.7540     3.7440 c3         1 UQ9      -0.056900
     44 C8          -7.1970     1.1380     2.3790 c2         1 UQ9      -0.237200
     45 C7          -7.9900     2.4040     2.5540 c3         1 UQ9       0.004000
     46 C6          -8.1440     3.0590     1.2100 cc         1 UQ9      -0.132400
     47 C1          -9.1770     2.8450     0.3770 cd         1 UQ9      -0.132400
     48 C1M        -10.3530     1.9730     0.6710 c3         1 UQ9      -0.054900
     49 C2          -9.2000     3.4870    -0.9640 c          1 UQ9       0.539500
     50 O2         -10.1390     3.3300    -1.7150 o          1 UQ9      -0.484100
     51 C3          -8.0400     4.3020    -1.4040 cc         1 UQ9       0.013900
     52 O3          -8.0610     4.7780    -2.6580 os         1 UQ9      -0.338100
     53 C3M         -8.7590     6.0110    -2.8320 c3         1 UQ9       0.153900
     54 C4          -7.0110     4.5170    -0.5740 cd         1 UQ9       0.014900
     55 O4          -5.9810     5.3020    -0.9200 os         1 UQ9      -0.338100
     56 C4M         -4.7710     4.6220    -1.2550 c3         1 UQ9       0.152900
     57 C5          -7.0150     3.9350     0.7940 c          1 UQ9       0.542500
     58 O5          -6.1100     4.2020     1.5530 o          1 UQ9      -0.483100
     59 H51         13.8750     5.3200     1.4910 hc         1 UQ9       0.038200
     60 H51A        12.3020     5.8560     2.0750 hc         1 UQ9       0.038200
     61 H51B        13.2990     4.7810     3.0520 hc         1 UQ9       0.038200
     62 H50         13.6010     2.2940     2.3340 hc         1 UQ9       0.038200
     63 H50A        12.8460     1.7500     0.8330 hc         1 UQ9       0.038200
     64 H50B        14.2230     2.8550     0.7970 hc         1 UQ9       0.038200
     65 H48         10.8340     2.7940     0.4230 ha         1 UQ9       0.165000
     66 H47          9.1580     4.4360     1.1560 hc         1 UQ9       0.045200
     67 H47A        10.3740     5.6400     1.5090 hc         1 UQ9       0.045200
     68 H46         10.9320     5.7500    -0.9430 hc         1 UQ9       0.045700
     69 H46A         9.6950     4.5590    -1.2700 hc         1 UQ9       0.045700
     70 H45         10.2330     8.1450    -1.1550 hc         1 UQ9       0.038700
     71 H45A         8.7130     8.6240    -0.3900 hc         1 UQ9       0.038700
     72 H45B        10.0110     7.9040     0.5640 hc         1 UQ9       0.038700
     73 H43          6.9900     7.1600    -0.8780 ha         1 UQ9       0.165000
     74 H42          6.3630     5.0290    -2.0170 hc         1 UQ9       0.046200
     75 H42A         7.6750     4.1690    -1.2360 hc         1 UQ9       0.046200
     76 H41          6.6390     4.5980     0.9950 hc         1 UQ9       0.044700
     77 H41A         5.3140     5.4450     0.2150 hc         1 UQ9       0.044700
     78 H40          4.7430     3.3810    -2.1760 hc         1 UQ9       0.039033
     79 H40A         3.6510     2.4310    -1.1820 hc         1 UQ9       0.039033
     80 H40B         3.6200     4.1910    -1.1070 hc         1 UQ9       0.039033
     81 H38          6.3710     2.4170     1.4280 ha         1 UQ9       0.165000
     82 H37          4.6150     0.6550     1.6190 hc         1 UQ9       0.045700
     83 H37A         4.1680     0.8460    -0.0630 hc         1 UQ9       0.045700
     84 H36          6.4660     0.1270    -0.7510 hc         1 UQ9       0.045200
     85 H36A         6.9010    -0.0780     0.9370 hc         1 UQ9       0.045200
     86 H35          4.1900    -1.5330     1.8830 hc         1 UQ9       0.039033
     87 H35A         4.7980    -3.1340     1.5010 hc         1 UQ9       0.039033
     88 H35B         5.8390    -1.9530     2.2930 hc         1 UQ9       0.039033
     89 H33          5.8760    -1.7480    -1.8320 ha         1 UQ9       0.165000
     90 H32          5.7890    -4.2040    -1.7020 hc         1 UQ9       0.045200
     91 H32A         4.8960    -4.1730    -0.2000 hc         1 UQ9       0.045200
     92 H31          2.9540    -3.1270    -1.3510 hc         1 UQ9       0.045700
     93 H31A         3.8290    -3.1600    -2.8730 hc         1 UQ9       0.045700
     94 H30          5.0310    -5.7730    -3.1170 hc         1 UQ9       0.038700
     95 H30A         3.6870    -6.8930    -3.2920 hc         1 UQ9       0.038700
     96 H30B         3.7270    -5.3990    -4.2220 hc         1 UQ9       0.038700
     97 H28          1.7920    -4.9480    -0.6720 ha         1 UQ9       0.165000
     98 H27          0.5920    -6.9430    -1.5650 hc         1 UQ9       0.045700
     99 H27A         2.0560    -7.5620    -2.2920 hc         1 UQ9       0.045700
    100 H26          3.0770    -7.8000    -0.0230 hc         1 UQ9       0.045700
    101 H26A         1.6360    -7.1360     0.7060 hc         1 UQ9       0.045700
    102 H25          3.1750   -10.3240    -0.0250 hc         1 UQ9       0.038700
    103 H25A         1.7700   -11.1680    -0.6840 hc         1 UQ9       0.038700
    104 H25B         2.6310    -9.9660    -1.6490 hc         1 UQ9       0.038700
    105 H23         -0.1900   -10.4070     0.2830 ha         1 UQ9       0.166000
    106 H22         -1.2290    -8.7080     1.7950 hc         1 UQ9       0.046200
    107 H22A        -0.3810    -7.4050     0.9860 hc         1 UQ9       0.046200
    108 H21         -1.5970    -8.0270    -1.1580 hc         1 UQ9       0.045200
    109 H21A        -2.5640    -9.1560    -0.2230 hc         1 UQ9       0.045200
    110 H20         -3.0920    -7.3180     2.3540 hc         1 UQ9       0.038700
    111 H20A        -4.4950    -6.5430     1.6320 hc         1 UQ9       0.038700
    112 H20B        -4.2370    -8.2740     1.4390 hc         1 UQ9       0.038700
    113 H18         -2.3420    -5.9620    -1.4160 ha         1 UQ9       0.164000
    114 H17         -4.4020    -4.5440    -1.1690 hc         1 UQ9       0.046200
    115 H17A        -4.4090    -4.7990     0.5630 hc         1 UQ9       0.046200
    116 H16         -2.1680    -3.7210     0.7480 hc         1 UQ9       0.045200
    117 H16A        -2.1370    -3.4770    -0.9880 hc         1 UQ9       0.045200
    118 H15         -3.5580    -1.7030    -2.0410 hc         1 UQ9       0.039367
    119 H15A        -5.0660    -2.3590    -1.4430 hc         1 UQ9       0.039367
    120 H15B        -4.6270    -0.7050    -1.0590 hc         1 UQ9       0.039367
    121 H13         -2.9300    -2.0420     2.0260 ha         1 UQ9       0.166000
    122 H12         -3.3790     0.3700     2.0610 hc         1 UQ9       0.045700
    123 H12A        -4.4450     0.2800     0.6770 hc         1 UQ9       0.045700
    124 H11         -6.0500    -1.1090     2.0020 hc         1 UQ9       0.047200
    125 H11A        -5.0000    -0.9720     3.4050 hc         1 UQ9       0.047200
    126 H10         -4.2660     2.0800     3.2430 hc         1 UQ9       0.044033
    127 H10A        -5.7130     2.6480     4.0550 hc         1 UQ9       0.044033
    128 H10B        -4.8670     1.2190     4.6440 hc         1 UQ9       0.044033
    129 H8          -7.6820     0.3950     1.7490 ha         1 UQ9       0.168000
    130 H7          -8.9700     2.1760     2.9740 hc         1 UQ9       0.065700
    131 H7A         -7.5080     3.0900     3.2480 hc         1 UQ9       0.065700
    132 H1M        -11.2810     2.5450     0.6370 hc         1 UQ9       0.056700
    133 H1MA       -10.4400     1.1820    -0.0750 hc         1 UQ9       0.056700
    134 H1MB       -10.2870     1.5000     1.6460 hc         1 UQ9       0.056700
    135 H3M         -8.2830     6.8150    -2.2690 h1         1 UQ9       0.044033
    136 H3MA        -8.7170     6.2470    -3.8930 h1         1 UQ9       0.044033
    137 H3MB        -9.8050     5.9320    -2.5300 h1         1 UQ9       0.044033
    138 H4M         -4.3340     4.1170    -0.3930 h1         1 UQ9       0.045033
    139 H4MA        -4.9390     3.8950    -2.0520 h1         1 UQ9       0.045033
    140 H4MB        -4.0760     5.3790    -1.6090 h1         1 UQ9       0.045033
@<TRIPOS>BOND
     1     1     2 1   
     2     1    59 1   
     3     1    60 1   
     4     1    61 1   
     5     2     3 1   
     6     2     4 2   
     7     3    62 1   
     8     3    63 1   
     9     3    64 1   
    10     4     5 1   
    11     4    65 1   
    12     5     6 1   
    13     5    66 1   
    14     5    67 1   
    15     6     7 1   
    16     6    68 1   
    17     6    69 1   
    18     7     8 1   
    19     7     9 2   
    20     8    70 1   
    21     8    71 1   
    22     8    72 1   
    23     9    10 1   
    24     9    73 1   
    25    10    11 1   
    26    10    74 1   
    27    10    75 1   
    28    11    12 1   
    29    11    76 1   
    30    11    77 1   
    31    12    13 1   
    32    12    14 2   
    33    13    78 1   
    34    13    79 1   
    35    13    80 1   
    36    14    15 1   
    37    14    81 1   
    38    15    16 1   
    39    15    82 1   
    40    15    83 1   
    41    16    17 1   
    42    16    84 1   
    43    16    85 1   
    44    17    18 1   
    45    17    19 2   
    46    18    86 1   
    47    18    87 1   
    48    18    88 1   
    49    19    20 1   
    50    19    89 1   
    51    20    21 1   
    52    20    90 1   
    53    20    91 1   
    54    21    22 1   
    55    21    92 1   
    56    21    93 1   
    57    22    23 1   
    58    22    24 2   
    59    23    94 1   
    60    23    95 1   
    61    23    96 1   
    62    24    25 1   
    63    24    97 1   
    64    25    26 1   
    65    25    98 1   
    66    25    99 1   
    67    26    27 1   
    68    26   100 1   
    69    26   101 1   
    70    27    28 1   
    71    27    29 2   
    72    28   102 1   
    73    28   103 1   
    74    28   104 1   
    75    29    30 1   
    76    29   105 1   
    77    30    31 1   
    78    30   106 1   
    79    30   107 1   
    80    31    32 1   
    81    31   108 1   
    82    31   109 1   
    83    32    33 1   
    84    32    34 2   
    85    33   110 1   
    86    33   111 1   
    87    33   112 1   
    88    34    35 1   
    89    34   113 1   
    90    35    36 1   
    91    35   114 1   
    92    35   115 1   
    93    36    37 1   
    94    36   116 1   
    95    36   117 1   
    96    37    38 1   
    97    37    39 2   
    98    38   118 1   
    99    38   119 1   
   100    38   120 1   
   101    39    40 1   
   102    39   121 1   
   103    40    41 1   
   104    40   122 1   
   105    40   123 1   
   106    41    42 1   
   107    41   124 1   
   108    41   125 1   
   109    42    43 1   
   110    42    44 2   
   111    43   126 1   
   112    43   127 1   
   113    43   128 1   
   114    44    45 1   
   115    44   129 1   
   116    45    46 1   
   117    45   130 1   
   118    45   131 1   
   119    46    47 2   
   120    46    57 1   
   121    47    48 1   
   122    47    49 1   
   123    48   132 1   
   124    48   133 1   
   125    48   134 1   
   126    49    50 2   
   127    49    51 1   
   128    51    52 1   
   129    51    54 2   
   130    52    53 1   
   131    53   135 1   
   132    53   136 1   
   133    53   137 1   
   134    54    55 1   
   135    54    57 1   
   136    55    56 1   
   137    56   138 1   
   138    56   139 1   
   139    56   140 1   
   140    57    58 2   
@<TRIPOS>SUBSTRUCTURE
     1 UQ9         1 TEMP              0 ****  ****    0 ROOT
