@<TRIPOS>MOLECULE
UQA
   29    30     1     0     0
SMALL
No Charge or Current Charge


@<TRIPOS>ATOM
      1 C01        109.2720    96.7970   104.5520 c3         1 UQA      -0.102100
      2 C02        109.0500    95.3170   104.1590 c3         1 UQA      -0.065400
      3 C03        109.6620    94.2490   105.1440 c6         1 UQA      -0.157700
      4 C04        108.9960    94.4460   106.5200 c          1 UQA       0.588000
      5 C07        111.1280    95.0150   107.5700 c          1 UQA       0.635000
      6 C10        111.1860    94.4720   105.1880 c          1 UQA       0.588000
      7 C12        109.4170    92.7750   104.7120 ca         1 UQA      -0.072300
      8 C13        108.7070    92.4230   103.5380 ca         1 UQA      -0.090000
      9 C14        108.5150    91.0730   103.1960 ca         1 UQA      -0.104500
     10 C15        109.0260    90.0550   104.0160 ca         1 UQA      -0.096000
     11 C16        109.7310    90.3890   105.1820 ca         1 UQA      -0.104500
     12 C17        109.9240    91.7370   105.5270 ca         1 UQA      -0.090000
     13 N06        109.7940    94.8070   107.5590 ns         1 UQA      -0.478500
     14 N09        111.7360    94.8300   106.3790 ns         1 UQA      -0.478500
     15 O05        107.7980    94.2850   106.6940 o          1 UQA      -0.492000
     16 O08        111.7330    95.3390   108.5720 o          1 UQA      -0.531000
     17 O11        111.8950    94.3330   104.2040 o          1 UQA      -0.492000
     18 H1         108.8120    97.4580   103.8080 hc         1 UQA       0.042367
     19 H2         108.8190    97.0230   105.5250 hc         1 UQA       0.042367
     20 H3         110.3400    97.0410   104.6010 hc         1 UQA       0.042367
     21 H4         107.9680    95.1600   104.0630 hc         1 UQA       0.069700
     22 H5         109.4660    95.1780   103.1520 hc         1 UQA       0.069700
     23 H6         108.2950    93.1780   102.8750 ha         1 UQA       0.113500
     24 H7         107.9680    90.8160   102.2910 ha         1 UQA       0.117000
     25 H8         108.8750    89.0120   103.7480 ha         1 UQA       0.117000
     26 H9         110.1280    89.6030   105.8200 ha         1 UQA       0.117000
     27 H10        110.4740    91.9700   106.4360 ha         1 UQA       0.113500
     28 H11        109.3290    94.9340   108.4450 hn         1 UQA       0.349500
     29 H12        112.7340    94.9740   106.3750 hn         1 UQA       0.349500
@<TRIPOS>BOND
     1     1     2 1   
     2     1    18 1   
     3     1    19 1   
     4     1    20 1   
     5     2     3 1   
     6     2    21 1   
     7     2    22 1   
     8     3     4 1   
     9     3     6 1   
    10     3     7 1   
    11     4    13 1   
    12     4    15 2   
    13     5    13 1   
    14     5    14 1   
    15     5    16 2   
    16     6    14 1   
    17     6    17 2   
    18     7     8 ar  
    19     7    12 ar  
    20     8     9 ar  
    21     8    23 1   
    22     9    10 ar  
    23     9    24 1   
    24    10    11 ar  
    25    10    25 1   
    26    11    12 ar  
    27    11    26 1   
    28    12    27 1   
    29    13    28 1   
    30    14    29 1   
@<TRIPOS>SUBSTRUCTURE
     1 UQA         1 TEMP              0 ****  ****    0 ROOT
