@<TRIPOS>MOLECULE
UQA
   29    30     1     0     0
SMALL
abcg2


@<TRIPOS>ATOM
      1 C01        109.3100    96.7180   104.6070 c3         1 UQA      -0.102100
      2 C02        109.0570    95.2760   104.1890 c3         1 UQA      -0.065400
      3 C03        109.6610    94.2240   105.1480 c6         1 UQA      -0.157700
      4 C04        108.9760    94.4110   106.4940 c          1 UQA       0.588000
      5 C07        111.1060    95.0710   107.5290 c          1 UQA       0.635000
      6 C10        111.1670    94.4400   105.1540 c          1 UQA       0.588000
      7 C12        109.4160    92.7820   104.7150 ca         1 UQA      -0.072300
      8 C13        108.7300    92.4520   103.5550 ca         1 UQA      -0.090000
      9 C14        108.5380    91.1200   103.2070 ca         1 UQA      -0.104500
     10 C15        109.0280    90.1050   104.0140 ca         1 UQA      -0.096000
     11 C16        109.7150    90.4280   105.1780 ca         1 UQA      -0.104500
     12 C17        109.9070    91.7560   105.5220 ca         1 UQA      -0.090000
     13 N06        109.7540    94.8230   107.5410 ns         1 UQA      -0.478500
     14 N09        111.7360    94.8570   106.3260 ns         1 UQA      -0.478500
     15 O05        107.7930    94.2190   106.6320 o          1 UQA      -0.492000
     16 O08        111.7000    95.4450   108.5090 o          1 UQA      -0.531000
     17 O11        111.8340    94.2680   104.1630 o          1 UQA      -0.492000
     18 H1         108.8460    97.3900   103.8860 hc         1 UQA       0.042367
     19 H2         108.8840    96.9540   105.5830 hc         1 UQA       0.042367
     20 H3         110.3720    96.9650   104.6340 hc         1 UQA       0.042367
     21 H4         107.9840    95.0950   104.1190 hc         1 UQA       0.069700
     22 H5         109.4720    95.1080   103.1940 hc         1 UQA       0.069700
     23 H6         108.3360    93.2220   102.9060 ha         1 UQA       0.113500
     24 H7         108.0010    90.8790   102.2990 ha         1 UQA       0.117000
     25 H8         108.8770    89.0690   103.7400 ha         1 UQA       0.117000
     26 H9         110.1030    89.6470   105.8180 ha         1 UQA       0.117000
     27 H10        110.4480    91.9850   106.4340 ha         1 UQA       0.113500
     28 H11        109.2910    94.9660   108.4320 hn         1 UQA       0.349500
     29 H12        112.7370    95.0170   106.3220 hn         1 UQA       0.349500
@<TRIPOS>BOND
     1     1     2 1   
     2     1    18 1   
     3     1    19 1   
     4     1    20 1   
     5     2     3 1   
     6     2    21 1   
     7     2    22 1   
     8     3     4 1   
     9     3     6 1   
    10     3     7 1   
    11     4    13 1   
    12     4    15 2   
    13     5    13 1   
    14     5    14 1   
    15     5    16 2   
    16     6    14 1   
    17     6    17 2   
    18     7     8 ar  
    19     7    12 ar  
    20     8     9 ar  
    21     8    23 1   
    22     9    10 ar  
    23     9    24 1   
    24    10    11 ar  
    25    10    25 1   
    26    11    12 ar  
    27    11    26 1   
    28    12    27 1   
    29    13    28 1   
    30    14    29 1   
@<TRIPOS>SUBSTRUCTURE
     1 UQA         1 TEMP              0 ****  ****    0 ROOT
