@<TRIPOS>MOLECULE
UQB
   21    21     1     0     0
SMALL
No Charge or Current Charge


@<TRIPOS>ATOM
      1 C4         -15.6410    27.6470     2.6870 ca         1 UQB      -0.154500
      2 C5         -15.4540    26.3240     2.2620 ca         1 UQB       0.175000
      3 C6         -14.5550    26.0340     1.2250 ca         1 UQB      -0.154500
      4 C7         -13.8370    27.0740     0.6080 ca         1 UQB      -0.072000
      5 F          -16.1420    25.3230     2.8540 f          1 UQB      -0.178000
      6 C3         -14.9250    28.6890     2.0720 ca         1 UQB      -0.072000
      7 C2         -14.0190    28.4110     1.0260 ca         1 UQB      -0.152300
      8 C1         -13.2470    29.5490     0.3610 c3         1 UQB       0.225600
      9 O          -11.8460    29.3730     0.6160 oh         1 UQB      -0.634000
     10 C          -13.5290    29.6390    -1.1770 c3         1 UQB       0.155800
     11 N          -12.9530    30.8410    -1.8470 n8         1 UQB      -0.982200
     12 H1         -16.3390    27.8630     3.4920 ha         1 UQB       0.132500
     13 H2         -14.4130    25.0060     0.9030 ha         1 UQB       0.132500
     14 H3         -13.1370    26.8390    -0.1910 ha         1 UQB       0.122500
     15 H4         -15.0770    29.7130     2.4090 ha         1 UQB       0.122500
     16 H5         -13.5800    30.4940     0.8120 h1         1 UQB       0.031700
     17 H6         -11.7600    29.2350     1.5830 ho         1 UQB       0.441000
     18 H7         -14.6180    29.6550    -1.3290 h1         1 UQB       0.038700
     19 H8         -13.1380    28.7410    -1.6750 h1         1 UQB       0.038700
     20 H9         -13.2720    30.8660    -2.8230 hn         1 UQB       0.391500
     21 H10        -13.3680    31.6860    -1.4350 hn         1 UQB       0.391500
@<TRIPOS>BOND
     1     1     2 ar  
     2     1     6 ar  
     3     1    12 1   
     4     2     3 ar  
     5     2     5 1   
     6     3     4 ar  
     7     3    13 1   
     8     4     7 ar  
     9     4    14 1   
    10     6     7 ar  
    11     6    15 1   
    12     7     8 1   
    13     8     9 1   
    14     8    10 1   
    15     8    16 1   
    16     9    17 1   
    17    10    11 1   
    18    10    18 1   
    19    10    19 1   
    20    11    20 1   
    21    11    21 1   
@<TRIPOS>SUBSTRUCTURE
     1 UQB         1 TEMP              0 ****  ****    0 ROOT
