@<TRIPOS>MOLECULE
UQB
   21    21     1     0     0
SMALL
bcc


@<TRIPOS>ATOM
      1 C4         -15.8090    27.7110     2.4200 ca         1 UQB      -0.172500
      2 C5         -15.4650    26.3880     2.2190 ca         1 UQB       0.139900
      3 C6         -14.3940    26.0240     1.4270 ca         1 UQB      -0.172500
      4 C7         -13.6380    27.0210     0.8280 ca         1 UQB      -0.090000
      5 F          -16.1880    25.4260     2.8160 f          1 UQB      -0.142900
      6 C3         -15.0390    28.6930     1.8120 ca         1 UQB      -0.090000
      7 C2         -13.9470    28.3660     1.0140 ca         1 UQB      -0.152300
      8 C1         -13.1400    29.4530     0.3380 c3         1 UQB       0.202400
      9 O          -11.7880    29.1000     0.1780 oh         1 UQB      -0.571800
     10 C          -13.7260    29.7480    -1.0400 c3         1 UQB       0.155800
     11 N          -13.0600    30.8700    -1.6770 n8         1 UQB      -0.871800
     12 H1         -16.6530    27.9730     3.0460 ha         1 UQB       0.150500
     13 H2         -14.1500    24.9790     1.2840 ha         1 UQB       0.150500
     14 H3         -12.7930    26.7390     0.2130 ha         1 UQB       0.140500
     15 H4         -15.2940    29.7340     1.9720 ha         1 UQB       0.140500
     16 H5         -13.2320    30.3680     0.9450 h1         1 UQB       0.031700
     17 H6         -11.4050    28.9710     1.0510 ho         1 UQB       0.402000
     18 H7         -14.8080    29.8860    -0.9160 h1         1 UQB       0.038700
     19 H8         -13.6000    28.8600    -1.6660 h1         1 UQB       0.038700
     20 H9         -13.4000    30.9660    -2.6250 hn         1 UQB       0.336300
     21 H10        -13.3200    31.7280    -1.2060 hn         1 UQB       0.336300
@<TRIPOS>BOND
     1     1     2 ar  
     2     1     6 ar  
     3     1    12 1   
     4     2     3 ar  
     5     2     5 1   
     6     3     4 ar  
     7     3    13 1   
     8     4     7 ar  
     9     4    14 1   
    10     6     7 ar  
    11     6    15 1   
    12     7     8 1   
    13     8     9 1   
    14     8    10 1   
    15     8    16 1   
    16     9    17 1   
    17    10    11 1   
    18    10    18 1   
    19    10    19 1   
    20    11    20 1   
    21    11    21 1   
@<TRIPOS>SUBSTRUCTURE
     1 UQB         1 TEMP              0 ****  ****    0 ROOT
