@<TRIPOS>MOLECULE
UQC
   54    57     1     0     0
SMALL
abcg2


@<TRIPOS>ATOM
      1 C1          -8.3570     0.0000   -18.7520 c6         1 UQC      -0.068400
      2 C2          -7.5470     0.1690   -20.0310 c6         1 UQC      -0.176400
      3 C3          -8.3630    -0.1640   -21.2510 c          1 UQC       0.569300
      4 C4          -9.7870     0.1350   -21.1730 ce         1 UQC      -0.310200
      5 C5         -10.3960     0.6160   -20.0740 c2         1 UQC      -0.041400
      6 C6         -11.8300     1.0480   -20.1420 c6         1 UQC      -0.050200
      7 C7         -12.6670     0.4660   -19.0050 c6         1 UQC      -0.069400
      8 C8         -12.0520     0.7650   -17.6420 c6         1 UQC      -0.038700
      9 C9         -10.5880     0.2420   -17.6090 c6         1 UQC      -0.152700
     10 C10         -9.6760     0.8010   -18.7440 c6         1 UQC       0.002200
     11 C11        -10.0050     0.3300   -16.1980 c          1 UQC       0.577100
     12 C12        -10.8460    -0.2940   -15.1000 c6         1 UQC      -0.171400
     13 C13        -12.2480     0.3240   -15.1250 c5         1 UQC      -0.021000
     14 C14        -12.8510     0.1050   -16.5270 c5         1 UQC      -0.071700
     15 C15        -14.3270     0.4750   -16.3560 c5         1 UQC      -0.063400
     16 C16        -14.6580     0.0650   -14.8990 c5         1 UQC      -0.096400
     17 C17        -13.3320    -0.4060   -14.2580 c5         1 UQC       0.083000
     18 C18        -12.1540     1.8080   -14.7480 c3         1 UQC      -0.094100
     19 C19         -9.4010     2.3130   -18.5730 c3         1 UQC      -0.084100
     20 C20        -13.2260    -0.0770   -12.7740 c          1 UQC       0.520100
     21 C21        -12.4430    -1.0250   -11.8920 c3         1 UQC       0.063600
     22 O1          -7.8530    -0.6150   -22.2740 o          1 UQC      -0.532100
     23 O2          -8.9400     0.8510   -15.9330 o          1 UQC      -0.519100
     24 O3         -13.1300    -1.8100   -14.4330 oh         1 UQC      -0.656000
     25 O4         -13.7230     0.9150   -12.2790 o          1 UQC      -0.519100
     26 O5         -12.3000    -0.5060   -10.5880 oh         1 UQC      -0.653000
     27 H1          -8.6010    -1.0600   -18.6340 hc         1 UQC       0.057700
     28 H2          -7.7550     0.2860   -17.8930 hc         1 UQC       0.057700
     29 H3          -6.6500    -0.4520   -20.0210 hc         1 UQC       0.072700
     30 H4          -7.2150     1.2080   -20.1440 hc         1 UQC       0.072700
     31 H5         -10.3510     0.0090   -22.0920 ha         1 UQC       0.195000
     32 H6         -11.8590     2.1420   -20.0720 hc         1 UQC       0.056700
     33 H7         -12.2500     0.7810   -21.1120 hc         1 UQC       0.056700
     34 H8         -13.6780     0.8750   -19.0540 hc         1 UQC       0.047700
     35 H9         -12.7510    -0.6190   -19.1280 hc         1 UQC       0.047700
     36 H10        -12.0500     1.8490   -17.4980 hc         1 UQC       0.059700
     37 H11        -10.6740    -0.8390   -17.7840 hc         1 UQC       0.067700
     38 H12        -10.9180    -1.3670   -15.2880 hc         1 UQC       0.079200
     39 H13        -10.3340    -0.1330   -14.1510 hc         1 UQC       0.079200
     40 H14        -12.8050    -0.9730   -16.7090 hc         1 UQC       0.064700
     41 H15        -14.4760     1.5470   -16.4980 hc         1 UQC       0.051200
     42 H16        -14.9610    -0.0380   -17.0770 hc         1 UQC       0.051200
     43 H17        -15.0620     0.9000   -14.3310 hc         1 UQC       0.061700
     44 H18        -15.3890    -0.7440   -14.8490 hc         1 UQC       0.061700
     45 H19        -11.7110     1.9280   -13.7590 hc         1 UQC       0.048033
     46 H20        -11.5190     2.3430   -15.4540 hc         1 UQC       0.048033
     47 H21        -13.1260     2.2970   -14.7420 hc         1 UQC       0.048033
     48 H22         -8.8240     2.4870   -17.6690 hc         1 UQC       0.044700
     49 H23         -8.8400     2.6940   -19.4270 hc         1 UQC       0.044700
     50 H24        -10.3270     2.8830   -18.5060 hc         1 UQC       0.044700
     51 H25        -12.9690    -1.9860   -11.8730 h1         1 UQC       0.070200
     52 H26        -11.4640    -1.2100   -12.3450 h1         1 UQC       0.070200
     53 H27        -13.9540    -2.2680   -14.2280 ho         1 UQC       0.450000
     54 H28        -12.8170     0.3180   -10.5690 ho         1 UQC       0.464000
@<TRIPOS>BOND
     1     1     2 1   
     2     1    10 1   
     3     1    27 1   
     4     1    28 1   
     5     2     3 1   
     6     2    29 1   
     7     2    30 1   
     8     3     4 1   
     9     3    22 2   
    10     4     5 2   
    11     4    31 1   
    12     5     6 1   
    13     5    10 1   
    14     6     7 1   
    15     6    32 1   
    16     6    33 1   
    17     7     8 1   
    18     7    34 1   
    19     7    35 1   
    20     8     9 1   
    21     8    14 1   
    22     8    36 1   
    23     9    10 1   
    24     9    11 1   
    25     9    37 1   
    26    10    19 1   
    27    11    12 1   
    28    11    23 2   
    29    12    13 1   
    30    12    38 1   
    31    12    39 1   
    32    13    14 1   
    33    13    17 1   
    34    13    18 1   
    35    14    15 1   
    36    14    40 1   
    37    15    16 1   
    38    15    41 1   
    39    15    42 1   
    40    16    17 1   
    41    16    43 1   
    42    16    44 1   
    43    17    20 1   
    44    17    24 1   
    45    18    45 1   
    46    18    46 1   
    47    18    47 1   
    48    19    48 1   
    49    19    49 1   
    50    19    50 1   
    51    20    21 1   
    52    20    25 2   
    53    21    26 1   
    54    21    51 1   
    55    21    52 1   
    56    24    53 1   
    57    26    54 1   
@<TRIPOS>SUBSTRUCTURE
     1 UQC         1 TEMP              0 ****  ****    0 ROOT
