@<TRIPOS>MOLECULE
UQC
   54    57     1     0     0
SMALL
No Charge or Current Charge


@<TRIPOS>ATOM
      1 C1          -8.3060    -0.0180   -18.7060 c6         1 UQC      -0.068400
      2 C2          -7.4680     0.1140   -20.0000 c6         1 UQC      -0.176400
      3 C3          -8.2890    -0.2740   -21.2280 c          1 UQC       0.569300
      4 C4          -9.7100     0.1490   -21.2110 ce         1 UQC      -0.310200
      5 C5         -10.3460     0.6190   -20.1100 c2         1 UQC      -0.041400
      6 C6         -11.8030     1.0720   -20.1860 c6         1 UQC      -0.050200
      7 C7         -12.6630     0.4790   -19.0540 c6         1 UQC      -0.069400
      8 C8         -12.0640     0.7950   -17.6580 c6         1 UQC      -0.038700
      9 C9         -10.5780     0.2990   -17.5850 c6         1 UQC      -0.152700
     10 C10         -9.6400     0.8080   -18.7480 c6         1 UQC       0.002200
     11 C11        -10.0340     0.3870   -16.1290 c          1 UQC       0.577100
     12 C12        -10.8920    -0.3330   -15.0780 c6         1 UQC      -0.171400
     13 C13        -12.3330     0.2710   -15.0770 c5         1 UQC      -0.021000
     14 C14        -12.9090     0.1220   -16.5270 c5         1 UQC      -0.071700
     15 C15        -14.3780     0.5890   -16.3540 c5         1 UQC      -0.063400
     16 C16        -14.7810     0.0320   -14.9450 c5         1 UQC      -0.096400
     17 C17        -13.4530    -0.5500   -14.3030 c5         1 UQC       0.083000
     18 C18        -12.2220     1.7570   -14.5770 c3         1 UQC      -0.094100
     19 C19         -9.3320     2.3400   -18.6340 c3         1 UQC      -0.084100
     20 C20        -13.4020    -0.2650   -12.7390 c          1 UQC       0.520100
     21 C21        -12.2540    -0.9460   -11.9410 c3         1 UQC       0.063600
     22 O1          -7.8000    -0.8850   -22.1690 o          1 UQC      -0.532100
     23 O2          -9.1460     1.1540   -15.7800 o          1 UQC      -0.519100
     24 O3         -13.3730    -1.9740   -14.5390 oh         1 UQC      -0.656000
     25 O4         -14.2230     0.4150   -12.1280 o          1 UQC      -0.519100
     26 O5         -11.5030    -0.0140   -11.1210 oh         1 UQC      -0.653000
     27 H1          -8.5340    -1.0830   -18.5590 hc         1 UQC       0.057700
     28 H2          -7.6920     0.2790   -17.8450 hc         1 UQC       0.057700
     29 H3          -6.5340    -0.4610   -19.9710 hc         1 UQC       0.072700
     30 H4          -7.2080     1.1730   -20.1180 hc         1 UQC       0.072700
     31 H5         -10.2400     0.0160   -22.1520 ha         1 UQC       0.195000
     32 H6         -11.8470     2.1690   -20.1450 hc         1 UQC       0.056700
     33 H7         -12.2400     0.7920   -21.1540 hc         1 UQC       0.056700
     34 H8         -13.6830     0.8780   -19.1290 hc         1 UQC       0.047700
     35 H9         -12.7420    -0.6080   -19.1950 hc         1 UQC       0.047700
     36 H10        -12.0880     1.8830   -17.5100 hc         1 UQC       0.059700
     37 H11        -10.7090    -0.7830   -17.7260 hc         1 UQC       0.067700
     38 H12        -10.9750    -1.3820   -15.3910 hc         1 UQC       0.079200
     39 H13        -10.4090    -0.2580   -14.0970 hc         1 UQC       0.079200
     40 H14        -12.9190    -0.9360   -16.8180 hc         1 UQC       0.064700
     41 H15        -14.4640     1.6820   -16.3920 hc         1 UQC       0.051200
     42 H16        -15.0280     0.1970   -17.1450 hc         1 UQC       0.051200
     43 H17        -15.2230     0.8430   -14.3560 hc         1 UQC       0.061700
     44 H18        -15.5620    -0.7320   -15.0260 hc         1 UQC       0.061700
     45 H19        -11.7250     1.8100   -13.6010 hc         1 UQC       0.048033
     46 H20        -11.6400     2.3850   -15.2610 hc         1 UQC       0.048033
     47 H21        -13.1970     2.2420   -14.4600 hc         1 UQC       0.048033
     48 H22         -8.6430     2.5680   -17.8140 hc         1 UQC       0.044700
     49 H23         -8.8670     2.7230   -19.5500 hc         1 UQC       0.044700
     50 H24        -10.2400     2.9310   -18.4710 hc         1 UQC       0.044700
     51 H25        -12.7180    -1.7240   -11.3200 h1         1 UQC       0.070200
     52 H26        -11.5920    -1.4640   -12.6450 h1         1 UQC       0.070200
     53 H27        -14.2590    -2.3590   -14.3550 ho         1 UQC       0.450000
     54 H28        -12.1500     0.4630   -10.5500 ho         1 UQC       0.464000
@<TRIPOS>BOND
     1     1     2 1   
     2     1    10 1   
     3     1    27 1   
     4     1    28 1   
     5     2     3 1   
     6     2    29 1   
     7     2    30 1   
     8     3     4 1   
     9     3    22 2   
    10     4     5 2   
    11     4    31 1   
    12     5     6 1   
    13     5    10 1   
    14     6     7 1   
    15     6    32 1   
    16     6    33 1   
    17     7     8 1   
    18     7    34 1   
    19     7    35 1   
    20     8     9 1   
    21     8    14 1   
    22     8    36 1   
    23     9    10 1   
    24     9    11 1   
    25     9    37 1   
    26    10    19 1   
    27    11    12 1   
    28    11    23 2   
    29    12    13 1   
    30    12    38 1   
    31    12    39 1   
    32    13    14 1   
    33    13    17 1   
    34    13    18 1   
    35    14    15 1   
    36    14    40 1   
    37    15    16 1   
    38    15    41 1   
    39    15    42 1   
    40    16    17 1   
    41    16    43 1   
    42    16    44 1   
    43    17    20 1   
    44    17    24 1   
    45    18    45 1   
    46    18    46 1   
    47    18    47 1   
    48    19    48 1   
    49    19    49 1   
    50    19    50 1   
    51    20    21 1   
    52    20    25 2   
    53    21    26 1   
    54    21    51 1   
    55    21    52 1   
    56    24    53 1   
    57    26    54 1   
@<TRIPOS>SUBSTRUCTURE
     1 UQC         1 TEMP              0 ****  ****    0 ROOT
