@<TRIPOS>MOLECULE
UQD
   41    43     1     0     0
SMALL
abcg2


@<TRIPOS>ATOM
      1 N           23.9900     8.2480    28.3290 nb         1 UQD      -0.234000
      2 O           24.2220     8.4690    24.7760 oh         1 UQD      -0.542100
      3 C1          19.6000     7.0000    23.0100 ca         1 UQD      -0.058300
      4 C10         22.7570     7.7650    28.4260 ca         1 UQD       0.135900
      5 C11         26.7020     9.3220    27.8070 ca         1 UQD       0.341000
      6 C12         26.5930     9.2250    29.1970 ca         1 UQD      -0.149000
      7 C13         27.6330     9.6150    30.0240 ca         1 UQD      -0.061000
      8 C14         28.8230    10.1170    29.5110 ca         1 UQD      -0.172900
      9 C15         28.9430    10.2260    28.1290 ca         1 UQD      -0.024000
     10 C16         27.9120     9.8330    27.3040 ca         1 UQD       0.042000
     11 C17         29.9480    10.5630    30.3750 ce         1 UQD       0.667800
     12 C2          20.3330     8.1820    23.0410 ca         1 UQD      -0.116000
     13 C3          21.2420     8.4370    24.0580 ca         1 UQD      -0.082000
     14 C4          21.4370     7.5110    25.0810 cp         1 UQD      -0.168500
     15 C5          20.6900     6.3330    25.0670 ca         1 UQD      -0.082000
     16 C6          19.7920     6.0820    24.0440 ca         1 UQD      -0.116000
     17 C7          22.3740     7.7720    26.1920 cp         1 UQD       0.120500
     18 C8          23.6580     8.2330    25.9760 ca         1 UQD      -0.009900
     19 C9          24.4570     8.4800    27.1170 ca         1 UQD       0.370900
     20 N1          21.9340     7.5160    27.4370 nb         1 UQD      -0.178000
     21 N2          25.7170     8.9590    26.9100 nu         1 UQD      -0.926900
     22 N3          30.8070    11.3770    29.8910 n2         1 UQD      -0.831100
     23 N4          29.9240    10.0920    31.6560 nv         1 UQD      -1.077200
     24 CL          28.1330     9.9880    25.5860 cl         1 UQD      -0.206000
     25 H3          19.1360     6.1270    21.1060 hc         1 UQD       0.045367
     26 H4          17.7900     6.1280    22.2330 hc         1 UQD       0.045367
     27 H2          18.2750     7.6240    21.4310 hc         1 UQD       0.045367
     28 H16         23.7330     8.0360    24.0640 ho         1 UQD       0.485000
     29 H9          22.4000     7.5630    29.4300 h5         1 UQD       0.053100
     30 H11         25.6840     8.8460    29.6320 ha         1 UQD       0.157000
     31 H12         27.4800     9.5340    31.0920 ha         1 UQD       0.120000
     32 H13         29.8550    10.6190    27.7010 ha         1 UQD       0.154000
     33 H5          20.1880     8.9240    22.2650 ha         1 UQD       0.116000
     34 H6          21.7680     9.3840    24.0650 ha         1 UQD       0.124500
     35 H7          20.8170     5.6090    25.8610 ha         1 UQD       0.124500
     36 H8          19.2270     5.1580    24.0500 ha         1 UQD       0.116000
     37 H10         25.9590     9.0760    25.9370 hn         1 UQD       0.528000
     38 H           31.5380    11.5820    30.5650 hn         1 UQD       0.371400
     39 H14         30.7310    10.2780    32.2300 hn         1 UQD       0.461000
     40 H15         29.5020     9.1960    31.8350 hn         1 UQD       0.461000
     41 C           18.6460     6.7080    21.8900 c3         1 UQD      -0.050800
@<TRIPOS>BOND
     1     1     4 ar  
     2     1    19 ar  
     3     2    18 1   
     4     2    28 1   
     5     3    12 ar  
     6     3    16 ar  
     7     3    41 1   
     8     4    20 ar  
     9     4    29 1   
    10     5     6 ar  
    11     5    10 ar  
    12     5    21 1   
    13     6     7 ar  
    14     6    30 1   
    15     7     8 ar  
    16     7    31 1   
    17     8     9 ar  
    18     8    11 1   
    19     9    10 ar  
    20     9    32 1   
    21    10    24 1   
    22    11    22 2   
    23    11    23 1   
    24    12    13 ar  
    25    12    33 1   
    26    13    14 ar  
    27    13    34 1   
    28    14    15 ar  
    29    14    17 1   
    30    15    16 ar  
    31    15    35 1   
    32    16    36 1   
    33    17    18 ar  
    34    17    20 ar  
    35    18    19 ar  
    36    19    21 1   
    37    21    37 1   
    38    22    38 1   
    39    23    39 1   
    40    23    40 1   
    41    25    41 1   
    42    26    41 1   
    43    27    41 1   
@<TRIPOS>SUBSTRUCTURE
     1 UQD         1 TEMP              0 ****  ****    0 ROOT
