@<TRIPOS>MOLECULE
UQD
   41    43     1     0     0
SMALL
No Charge or Current Charge


@<TRIPOS>ATOM
      1 N           24.0700     8.0220    28.3320 nb         1 UQD      -0.234000
      2 O           24.0740     8.6880    24.7270 oh         1 UQD      -0.542100
      3 C1          19.5180     6.9920    22.9520 ca         1 UQD      -0.058300
      4 C10         22.8680     7.4170    28.4030 ca         1 UQD       0.135900
      5 C11         26.7570     9.4170    27.8530 ca         1 UQD       0.341000
      6 C12         26.5470     9.6660    29.2220 ca         1 UQD      -0.149000
      7 C13         27.6150    10.0320    30.0610 ca         1 UQD      -0.061000
      8 C14         28.9280    10.1540    29.5500 ca         1 UQD      -0.172900
      9 C15         29.1280     9.9450    28.1670 ca         1 UQD      -0.024000
     10 C16         28.0600     9.5800    27.3290 ca         1 UQD       0.042000
     11 C17         30.0720    10.5760    30.4190 ce         1 UQD       0.667800
     12 C2          20.1290     8.2480    23.1060 ca         1 UQD      -0.116000
     13 C3          21.0520     8.4680    24.1430 ca         1 UQD      -0.082000
     14 C4          21.3930     7.4320    25.0490 cp         1 UQD      -0.168500
     15 C5          20.7580     6.1750    24.8880 ca         1 UQD      -0.082000
     16 C6          19.8360     5.9570    23.8490 ca         1 UQD      -0.116000
     17 C7          22.3700     7.6600    26.1620 cp         1 UQD       0.120500
     18 C8          23.6320     8.2940    25.9760 ca         1 UQD      -0.009900
     19 C9          24.4500     8.4670    27.1210 ca         1 UQD       0.370900
     20 N1          22.0100     7.2130    27.3830 nb         1 UQD      -0.178000
     21 N2          25.7080     9.0610    26.9880 nu         1 UQD      -0.926900
     22 N3          31.1590    11.0380    29.9580 n2         1 UQD      -0.831100
     23 N4          29.9800    10.3490    31.7450 nv         1 UQD      -1.077200
     24 Cl          28.3840     9.3260    25.6070 cl         1 UQD      -0.206000
     25 H3          19.0310     6.4000    20.9230 hc         1 UQD       0.045367
     26 H4          17.7740     6.0020    22.1070 hc         1 UQD       0.045367
     27 H2          17.9820     7.6740    21.5700 hc         1 UQD       0.045367
     28 H16         23.4330     8.3680    24.0530 ho         1 UQD       0.485000
     29 H9          22.5600     7.0530    29.3810 h5         1 UQD       0.053100
     30 H11         25.5520     9.6050    29.6460 ha         1 UQD       0.157000
     31 H12         27.4060    10.2370    31.1090 ha         1 UQD       0.120000
     32 H13         30.1190    10.0580    27.7330 ha         1 UQD       0.154000
     33 H5          19.8850     9.0610    22.4240 ha         1 UQD       0.116000
     34 H6          21.4890     9.4590    24.2570 ha         1 UQD       0.124500
     35 H7          20.9900     5.3590    25.5690 ha         1 UQD       0.124500
     36 H8          19.3700     4.9800    23.7430 ha         1 UQD       0.116000
     37 H10         25.9470     9.1760    26.0000 hn         1 UQD       0.528000
     38 H           31.6900    11.4360    30.7410 hn         1 UQD       0.371400
     39 H14         30.8600    10.2290    32.2320 hn         1 UQD       0.461000
     40 H15         29.2450     9.7100    32.0250 hn         1 UQD       0.461000
     41 C           18.5210     6.7540    21.8270 c3         1 UQD      -0.050800
@<TRIPOS>BOND
     1     1     4 ar  
     2     1    19 ar  
     3     2    18 1   
     4     2    28 1   
     5     3    12 ar  
     6     3    16 ar  
     7     3    41 1   
     8     4    20 ar  
     9     4    29 1   
    10     5     6 ar  
    11     5    10 ar  
    12     5    21 1   
    13     6     7 ar  
    14     6    30 1   
    15     7     8 ar  
    16     7    31 1   
    17     8     9 ar  
    18     8    11 1   
    19     9    10 ar  
    20     9    32 1   
    21    10    24 1   
    22    11    22 2   
    23    11    23 1   
    24    12    13 ar  
    25    12    33 1   
    26    13    14 ar  
    27    13    34 1   
    28    14    15 ar  
    29    14    17 1   
    30    15    16 ar  
    31    15    35 1   
    32    16    36 1   
    33    17    18 ar  
    34    17    20 ar  
    35    18    19 ar  
    36    19    21 1   
    37    21    37 1   
    38    22    38 1   
    39    23    39 1   
    40    23    40 1   
    41    25    41 1   
    42    26    41 1   
    43    27    41 1   
@<TRIPOS>SUBSTRUCTURE
     1 UQD         1 TEMP              0 ****  ****    0 ROOT
