@<TRIPOS>MOLECULE
UQE
   54    57     1     0     0
SMALL
abcg2


@<TRIPOS>ATOM
      1 C13         19.2770     3.1280     2.8940 c3         1 UQE       0.008300
      2 C17         16.9410     2.2040     2.6980 cc         1 UQE      -0.148000
      3 C24         22.5400    -1.8500     2.7770 ca         1 UQE      -0.156000
      4 C26         21.1490    -1.2000     4.6080 ca         1 UQE      -0.142000
      5 C28         18.6800    -1.1500     4.2220 cc         1 UQE      -0.267500
      6 C02         21.7230     1.6190     1.0040 ca         1 UQE      -0.064000
      7 C03         23.0240     1.7270     0.5410 ca         1 UQE      -0.179500
      8 C04         24.0440     2.0940     1.4160 ca         1 UQE       0.146100
      9 C05         23.7400     2.3440     2.7520 ca         1 UQE      -0.179500
     10 C06         22.4320     2.2310     3.1980 ca         1 UQE      -0.064000
     11 C07         21.4020     1.8700     2.3360 ca         1 UQE      -0.139300
     12 C08         19.9860     1.7680     2.8200 c3         1 UQE      -0.038100
     13 C12         19.3560     3.8490     1.5500 c          1 UQE       0.601100
     14 C18         15.8480     2.3690     3.5060 cd         1 UQE       0.169300
     15 C19         14.4670     1.8270     3.3480 c3         1 UQE       0.193500
     16 C23         21.3810    -2.0430     2.0380 ca         1 UQE       0.352900
     17 C25         22.4140    -1.4200     4.0890 ca         1 UQE      -0.069000
     18 C27         20.0480    -1.4130     3.7830 ca         1 UQE       0.413500
     19 C29         18.2080    -0.6930     5.4240 cd         1 UQE      -0.146000
     20 C30         16.8040    -0.5290     5.4350 cd         1 UQE       0.011000
     21 C31         16.2510    -0.8680     4.2360 cc         1 UQE      -0.458500
     22 N10         20.2720     4.8220     1.5360 ns         1 UQE      -0.378400
     23 N14         16.1980     3.1900     4.5180 nd         1 UQE      -0.344000
     24 N15         17.4300     3.5370     4.3780 nc         1 UQE      -0.210800
     25 N16         17.8940     2.9510     3.2840 na         1 UQE       0.122800
     26 N20         14.4680     0.4760     2.7960 n7         1 UQE      -0.899300
     27 N22         20.1680    -1.8300     2.5230 nb         1 UQE      -0.687000
     28 O09         20.5040     5.5380     0.4060 oh         1 UQE      -0.405100
     29 O11         18.6790     3.5180     0.5960 o          1 UQE      -0.563100
     30 O32         13.8240    -0.5790     5.0500 o          1 UQE      -0.543500
     31 O34         14.2490    -1.9810     3.0060 o          1 UQE      -0.543500
     32 S21         17.4100    -1.3900     3.0850 ss         1 UQE       0.416000
     33 S33         14.5570    -0.8170     3.8180 sy         1 UQE       1.195600
     34 H1          19.7310     3.7260     3.6860 h1         1 UQE       0.095700
     35 H2          17.0960     1.6290     1.8030 h4         1 UQE       0.188000
     36 H4          21.0260    -0.8580     5.6270 ha         1 UQE       0.128000
     37 H5          20.9420     1.3260     0.3130 ha         1 UQE       0.121500
     38 H6          23.2530     1.5240    -0.4980 ha         1 UQE       0.126000
     39 H7          24.5240     2.6240     3.4470 ha         1 UQE       0.126000
     40 H8          22.2160     2.4210     4.2430 ha         1 UQE       0.121500
     41 H9          19.9570     1.3420     3.8230 hc         1 UQE       0.074700
     42 H10         19.4230     1.0990     2.1670 hc         1 UQE       0.074700
     43 H11         13.9060     2.4390     2.6420 h1         1 UQE       0.072700
     44 H12         13.9330     1.8920     4.2990 h1         1 UQE       0.072700
     45 H13         21.4360    -2.3790     1.0090 h4         1 UQE       0.025100
     46 H14         23.2900    -1.2520     4.7010 ha         1 UQE       0.121000
     47 H15         18.8370    -0.4760     6.2760 ha         1 UQE       0.136000
     48 H16         16.2410    -0.1770     6.2870 ha         1 UQE       0.159000
     49 H17         20.8120     5.0960     2.3450 hn         1 UQE       0.347500
     50 H18         13.7710     0.3130     2.0780 hn         1 UQE       0.493000
     51 H20         21.1900     5.0620    -0.0840 ho         1 UQE       0.441000
     52 O01         25.2940     2.1840     0.9220 oh         1 UQE      -0.528100
     53 H3          23.5080    -2.0280     2.3320 ha         1 UQE       0.129000
     54 H19         25.9110     2.4520     1.6130 ho         1 UQE       0.468000
@<TRIPOS>BOND
     1     1    12 1   
     2     1    13 1   
     3     1    25 1   
     4     1    34 1   
     5     2    14 2   
     6     2    25 1   
     7     2    35 1   
     8     3    16 ar  
     9     3    17 ar  
    10     3    53 1   
    11     4    17 ar  
    12     4    18 ar  
    13     4    36 1   
    14     5    18 1   
    15     5    19 2   
    16     5    32 1   
    17     6     7 ar  
    18     6    11 ar  
    19     6    37 1   
    20     7     8 ar  
    21     7    38 1   
    22     8     9 ar  
    23     8    52 1   
    24     9    10 ar  
    25     9    39 1   
    26    10    11 ar  
    27    10    40 1   
    28    11    12 1   
    29    12    41 1   
    30    12    42 1   
    31    13    22 1   
    32    13    29 2   
    33    14    15 1   
    34    14    23 1   
    35    15    26 1   
    36    15    43 1   
    37    15    44 1   
    38    16    27 ar  
    39    16    45 1   
    40    17    46 1   
    41    18    27 ar  
    42    19    20 1   
    43    19    47 1   
    44    20    21 2   
    45    20    48 1   
    46    21    32 1   
    47    21    33 1   
    48    22    28 1   
    49    22    49 1   
    50    23    24 2   
    51    24    25 1   
    52    26    33 1   
    53    26    50 1   
    54    28    51 1   
    55    30    33 2   
    56    31    33 2   
    57    52    54 1   
@<TRIPOS>SUBSTRUCTURE
     1 UQE         1 TEMP              0 ****  ****    0 ROOT
