@<TRIPOS>MOLECULE
UQE
   54    57     1     0     0
SMALL
No Charge or Current Charge


@<TRIPOS>ATOM
      1 C13         19.2870     3.0270     2.7480 c3         1 UQE       0.008300
      2 C17         16.8910     2.1350     2.6340 cc         1 UQE      -0.148000
      3 C24         22.5510    -2.0070     2.6030 ca         1 UQE      -0.156000
      4 C26         21.1040    -1.5950     4.4810 ca         1 UQE      -0.142000
      5 C28         18.6530    -1.2950     4.0520 cc         1 UQE      -0.267500
      6 C02         21.9800     1.4800     1.0990 ca         1 UQE      -0.064000
      7 C03         23.3420     1.5940     0.7730 ca         1 UQE      -0.179500
      8 C04         24.2580     2.0580     1.7280 ca         1 UQE       0.146100
      9 C05         23.8160     2.4100     3.0130 ca         1 UQE      -0.179500
     10 C06         22.4530     2.2960     3.3430 ca         1 UQE      -0.064000
     11 C07         21.5300     1.8320     2.3860 ca         1 UQE      -0.139300
     12 C08         20.0580     1.6880     2.7510 c3         1 UQE      -0.038100
     13 C12         19.3220     3.7110     1.3680 c          1 UQE       0.601100
     14 C18         15.8240     2.3460     3.4600 cd         1 UQE       0.169300
     15 C19         14.3990     1.8540     3.2890 c3         1 UQE       0.193500
     16 C23         21.4100    -1.9960     1.7840 ca         1 UQE       0.352900
     17 C25         22.4000    -1.8060     3.9820 ca         1 UQE      -0.069000
     18 C27         20.0080    -1.5900     3.5920 ca         1 UQE       0.413500
     19 C29         18.3960    -0.4860     5.1380 cd         1 UQE      -0.146000
     20 C30         17.0120    -0.2130     5.2980 cd         1 UQE       0.011000
     21 C31         16.2380    -0.7930     4.3230 cc         1 UQE      -0.458500
     22 N10         19.9180     4.9700     1.3410 ns         1 UQE      -0.378400
     23 N14         16.2090     3.1730     4.4970 nd         1 UQE      -0.344000
     24 N15         17.4710     3.4820     4.3550 nc         1 UQE      -0.210800
     25 N16         17.8980     2.8640     3.2180 na         1 UQE       0.122800
     26 N20         14.2680     0.4110     2.9560 n7         1 UQE      -0.899300
     27 N22         20.1620    -1.7940     2.2630 nb         1 UQE      -0.687000
     28 O09         19.7930     5.8270     0.1800 oh         1 UQE      -0.405100
     29 O11         18.8640     3.1890     0.3570 o          1 UQE      -0.563100
     30 O32         13.8940    -0.1510     5.3790 o          1 UQE      -0.543500
     31 O34         14.0280    -1.9720     3.5800 o          1 UQE      -0.543500
     32 S21         17.1880    -1.6970     3.1650 ss         1 UQE       0.416000
     33 S33         14.4870    -0.7120     4.1650 sy         1 UQE       1.195600
     34 H1          19.7940     3.6970     3.4530 h1         1 UQE       0.095700
     35 H2          16.9950     1.5680     1.7190 h4         1 UQE       0.188000
     36 H4          20.9560    -1.4370     5.5440 ha         1 UQE       0.128000
     37 H5          21.2770     1.1150     0.3530 ha         1 UQE       0.121500
     38 H6          23.6870     1.3200    -0.2210 ha         1 UQE       0.126000
     39 H7          24.5190     2.7680     3.7610 ha         1 UQE       0.126000
     40 H8          22.1180     2.5640     4.3430 ha         1 UQE       0.121500
     41 H9          19.9840     1.2560     3.7540 hc         1 UQE       0.074700
     42 H10         19.5610     0.9830     2.0740 hc         1 UQE       0.074700
     43 H11         13.9630     2.4520     2.4770 h1         1 UQE       0.072700
     44 H12         13.8260     2.1100     4.1920 h1         1 UQE       0.072700
     45 H13         21.4980    -2.1510     0.7090 h4         1 UQE       0.025100
     46 H14         23.2620    -1.8100     4.6460 ha         1 UQE       0.121000
     47 H15         19.1540    -0.0730     5.7960 ha         1 UQE       0.136000
     48 H16         16.6130     0.4050     6.1000 ha         1 UQE       0.159000
     49 H17         20.1600     5.4340     2.2160 hn         1 UQE       0.347500
     50 H18         13.2910     0.2190     2.7410 hn         1 UQE       0.493000
     51 H20         20.7210     6.1020    -0.0080 ho         1 UQE       0.441000
     52 O01         25.5770     2.1630     1.4020 oh         1 UQE      -0.528100
     53 H3          23.5320    -2.1690     2.1670 ha         1 UQE       0.129000
     54 H19         26.0630     2.5010     2.1830 ho         1 UQE       0.468000
@<TRIPOS>BOND
     1     1    12 1   
     2     1    13 1   
     3     1    25 1   
     4     1    34 1   
     5     2    14 2   
     6     2    25 1   
     7     2    35 1   
     8     3    16 ar  
     9     3    17 ar  
    10     3    53 1   
    11     4    17 ar  
    12     4    18 ar  
    13     4    36 1   
    14     5    18 1   
    15     5    19 2   
    16     5    32 1   
    17     6     7 ar  
    18     6    11 ar  
    19     6    37 1   
    20     7     8 ar  
    21     7    38 1   
    22     8     9 ar  
    23     8    52 1   
    24     9    10 ar  
    25     9    39 1   
    26    10    11 ar  
    27    10    40 1   
    28    11    12 1   
    29    12    41 1   
    30    12    42 1   
    31    13    22 1   
    32    13    29 2   
    33    14    15 1   
    34    14    23 1   
    35    15    26 1   
    36    15    43 1   
    37    15    44 1   
    38    16    27 ar  
    39    16    45 1   
    40    17    46 1   
    41    18    27 ar  
    42    19    20 1   
    43    19    47 1   
    44    20    21 2   
    45    20    48 1   
    46    21    32 1   
    47    21    33 1   
    48    22    28 1   
    49    22    49 1   
    50    23    24 2   
    51    24    25 1   
    52    26    33 1   
    53    26    50 1   
    54    28    51 1   
    55    30    33 2   
    56    31    33 2   
    57    52    54 1   
@<TRIPOS>SUBSTRUCTURE
     1 UQE         1 TEMP              0 ****  ****    0 ROOT
