@<TRIPOS>MOLECULE
UQG
   41    43     1     0     0
SMALL
bcc


@<TRIPOS>ATOM
      1 N           24.0850     8.2050    27.7570 nb         1 UQG      -0.772000
      2 O           23.8710     8.9460    24.2320 oh         1 UQG      -0.502100
      3 C1          19.2990     7.1220    22.7410 ca         1 UQG      -0.057300
      4 C10         22.9190     7.5860    27.8780 ca         1 UQG       0.687900
      5 C11         26.6580     9.5400    27.1650 ca         1 UQG       0.183600
      6 C12         27.8140    10.0500    26.5580 ca         1 UQG      -0.180000
      7 C13         28.9310    10.3570    27.3050 ca         1 UQG      -0.067500
      8 C14         28.9420    10.1800    28.6890 ca         1 UQG      -0.173900
      9 C15         27.7930     9.6710    29.2850 ca         1 UQG      -0.067500
     10 C16         26.6620     9.3510    28.5480 ca         1 UQG      -0.180000
     11 C17         30.1650    10.5120    29.4650 ce         1 UQG       0.666800
     12 C2          19.9280     8.3620    22.8070 ca         1 UQG      -0.137500
     13 C3          20.9130     8.6210    23.7490 ca         1 UQG      -0.086000
     14 C4          21.2850     7.6460    24.6720 cp         1 UQG      -0.154500
     15 C5          20.6400     6.4100    24.6250 ca         1 UQG      -0.086000
     16 C6          19.6720     6.1510    23.6700 ca         1 UQG      -0.137500
     17 C7          22.3000     7.8840    25.7170 cp         1 UQG       0.522800
     18 C8          23.4940     8.5300    25.4720 ca         1 UQG      -0.192500
     19 C9          24.3950     8.6710    26.5560 ca         1 UQG       0.695200
     20 N1          22.0220     7.3940    26.9400 nb         1 UQG      -0.730000
     21 N2          25.5850     9.2790    26.3230 nu         1 UQG      -0.735300
     22 N3          31.2880    10.5510    28.8540 n2         1 UQG      -0.832100
     23 N4          29.9780    10.6970    30.8060 nv         1 UQG      -0.965800
     24 H3          18.6890     6.2530    20.8760 hc         1 UQG       0.044367
     25 H4          17.4380     6.2450    22.1060 hc         1 UQG       0.044367
     26 H2          17.8510     7.7460    21.2750 hc         1 UQG       0.044367
     27 H17         23.6530     9.8770    24.0980 ho         1 UQG       0.415000
     28 H9          22.6880     7.1980    28.8640 h5         1 UQG       0.051100
     29 H11         27.8320    10.2060    25.4860 ha         1 UQG       0.150500
     30 H12         29.8100    10.7470    26.8110 ha         1 UQG       0.145500
     31 H13         27.7610     9.4900    30.3520 ha         1 UQG       0.145500
     32 H14         25.7970     8.9510    29.0490 ha         1 UQG       0.150500
     33 H5          19.6440     9.1440    22.1120 ha         1 UQG       0.131500
     34 H6          21.3550     9.6080    23.7770 ha         1 UQG       0.134000
     35 H7          20.9030     5.6410    25.3410 ha         1 UQG       0.134000
     36 H8          19.1950     5.1780    23.6490 ha         1 UQG       0.131500
     37 H10         25.7420     9.5290    25.3580 hn         1 UQG       0.452800
     38 H           32.0390    10.8170    29.4850 hn         1 UQG       0.369400
     39 H16         29.0900    11.0490    31.1230 hn         1 UQG       0.404800
     40 H15         30.7600    11.0470    31.3360 hn         1 UQG       0.404800
     41 C           18.2620     6.8300    21.6980 c3         1 UQG      -0.049800
@<TRIPOS>BOND
     1     1     4 ar  
     2     1    19 ar  
     3     2    18 1   
     4     2    27 1   
     5     3    12 ar  
     6     3    16 ar  
     7     3    41 1   
     8     4    20 ar  
     9     4    28 1   
    10     5     6 ar  
    11     5    10 ar  
    12     5    21 1   
    13     6     7 ar  
    14     6    29 1   
    15     7     8 ar  
    16     7    30 1   
    17     8     9 ar  
    18     8    11 1   
    19     9    10 ar  
    20     9    31 1   
    21    10    32 1   
    22    11    22 2   
    23    11    23 1   
    24    12    13 ar  
    25    12    33 1   
    26    13    14 ar  
    27    13    34 1   
    28    14    15 ar  
    29    14    17 1   
    30    15    16 ar  
    31    15    35 1   
    32    16    36 1   
    33    17    18 ar  
    34    17    20 ar  
    35    18    19 ar  
    36    19    21 1   
    37    21    37 1   
    38    22    38 1   
    39    23    39 1   
    40    23    40 1   
    41    24    41 1   
    42    25    41 1   
    43    26    41 1   
@<TRIPOS>SUBSTRUCTURE
     1 UQG         1 TEMP              0 ****  ****    0 ROOT
