@<TRIPOS>MOLECULE
UQG
   41    43     1     0     0
SMALL
No Charge or Current Charge


@<TRIPOS>ATOM
      1 N           24.5870     7.4080    27.3820 nb         1 UQG      -0.246000
      2 O           23.8490     9.0460    24.1850 oh         1 UQG      -0.541100
      3 C1          19.0400     7.3920    22.8970 ca         1 UQG      -0.057300
      4 C10         23.4380     6.7190    27.5080 ca         1 UQG       0.161900
      5 C11         26.8930     9.3090    27.0060 ca         1 UQG       0.322000
      6 C12         28.2200     9.4630    26.5800 ca         1 UQG      -0.162000
      7 C13         29.2000     9.9610    27.4570 ca         1 UQG      -0.049500
      8 C14         28.8630    10.3410    28.7770 ca         1 UQG      -0.173900
      9 C15         27.5230    10.1730    29.2010 ca         1 UQG      -0.049500
     10 C16         26.5500     9.6720    28.3180 ca         1 UQG      -0.162000
     11 C17         29.9210    10.8390    29.7130 ce         1 UQG       0.666800
     12 C2          19.7160     8.6010    23.1350 ca         1 UQG      -0.119500
     13 C3          20.8370     8.6350    23.9830 ca         1 UQG      -0.068000
     14 C4          21.3180     7.4590    24.6140 cp         1 UQG      -0.154500
     15 C5          20.6150     6.2500    24.3690 ca         1 UQG      -0.068000
     16 C6          19.4960     6.2170    23.5190 ca         1 UQG      -0.119500
     17 C7          22.5060     7.4840    25.5360 cp         1 UQG       0.194500
     18 C8          23.6900     8.2510    25.3040 ca         1 UQG      -0.061900
     19 C9          24.7150     8.1700    26.2820 ca         1 UQG       0.366900
     20 N1          22.4090     6.7130    26.6400 nb         1 UQG      -0.204000
     21 N2          25.9410     8.8220    26.1070 nu         1 UQG      -0.928900
     22 N3          31.1620    10.6640    29.5170 n2         1 UQG      -0.832100
     23 N4          29.5380    11.6070    30.7540 nv         1 UQG      -1.076200
     24 H3          18.1340     7.1610    20.9410 hc         1 UQG       0.044367
     25 H4          17.1250     6.5690    22.2720 hc         1 UQG       0.044367
     26 H2          17.2850     8.3070    21.9930 hc         1 UQG       0.044367
     27 H17         24.5430     9.7170    24.3730 ho         1 UQG       0.454000
     28 H9          23.3350     6.0970    28.3950 h5         1 UQG       0.051100
     29 H11         28.5020     9.1870    25.5680 ha         1 UQG       0.132500
     30 H12         30.2240    10.0600    27.1020 ha         1 UQG       0.127500
     31 H13         27.2260    10.4210    30.2180 ha         1 UQG       0.127500
     32 H14         25.5250     9.5730    28.6610 ha         1 UQG       0.132500
     33 H5          19.3730     9.5200    22.6650 ha         1 UQG       0.113500
     34 H6          21.3250     9.5890    24.1640 ha         1 UQG       0.116000
     35 H7          20.9470     5.3240    24.8340 ha         1 UQG       0.116000
     36 H8          18.9830     5.2730    23.3450 ha         1 UQG       0.113500
     37 H10         26.2840     8.7690    25.1490 hn         1 UQG       0.508000
     38 H           31.6570    10.9190    30.3790 hn         1 UQG       0.369400
     39 H16         28.5970    11.9780    30.6840 hn         1 UQG       0.460000
     40 H15         30.2290    12.2580    31.1070 hn         1 UQG       0.460000
     41 C           17.8300     7.3550    21.9760 c3         1 UQG      -0.049800
@<TRIPOS>BOND
     1     1     4 ar  
     2     1    19 ar  
     3     2    18 1   
     4     2    27 1   
     5     3    12 ar  
     6     3    16 ar  
     7     3    41 1   
     8     4    20 ar  
     9     4    28 1   
    10     5     6 ar  
    11     5    10 ar  
    12     5    21 1   
    13     6     7 ar  
    14     6    29 1   
    15     7     8 ar  
    16     7    30 1   
    17     8     9 ar  
    18     8    11 1   
    19     9    10 ar  
    20     9    31 1   
    21    10    32 1   
    22    11    22 2   
    23    11    23 1   
    24    12    13 ar  
    25    12    33 1   
    26    13    14 ar  
    27    13    34 1   
    28    14    15 ar  
    29    14    17 1   
    30    15    16 ar  
    31    15    35 1   
    32    16    36 1   
    33    17    18 ar  
    34    17    20 ar  
    35    18    19 ar  
    36    19    21 1   
    37    21    37 1   
    38    22    38 1   
    39    23    39 1   
    40    23    40 1   
    41    24    41 1   
    42    25    41 1   
    43    26    41 1   
@<TRIPOS>SUBSTRUCTURE
     1 UQG         1 TEMP              0 ****  ****    0 ROOT
