@<TRIPOS>MOLECULE
UQH
   69    72     1     0     0
SMALL
abcg2


@<TRIPOS>ATOM
      1 N1         -34.4330   -29.8050   -67.7890 n3         1 UQH      -0.722600
      2 N3         -48.1580   -27.7850   -63.3100 nb         1 UQH      -0.312000
      3 C4         -33.7530   -31.1780   -65.8160 c3         1 UQH       0.156600
      4 C5         -35.7090   -29.4860   -67.1470 c3         1 UQH       0.177800
      5 C6         -36.8580   -30.4800   -67.3500 c3         1 UQH      -0.116400
      6 C7         -38.1060   -30.0520   -66.5820 c3         1 UQH      -0.075400
      7 C8         -39.2910   -30.9980   -66.7740 c3         1 UQH      -0.071400
      8 C10        -41.1530   -29.3220   -66.2760 c3         1 UQH       0.212800
      9 C13        -43.4550   -25.6800   -66.4060 ca         1 UQH      -0.005300
     10 C15        -43.9490   -23.6940   -68.0360 cx         1 UQH      -0.121900
     11 C17        -44.6500   -25.6110   -65.6900 ca         1 UQH      -0.147000
     12 C20        -46.8310   -25.4080   -63.6620 ca         1 UQH      -0.110000
     13 C21        -48.0210   -25.4240   -62.9770 ca         1 UQH      -0.119000
     14 C22        -48.6570   -26.6550   -62.8250 ca         1 UQH       0.269900
     15 C24        -34.5080   -29.7630   -69.2430 c6         1 UQH       0.135800
     16 C1         -32.3090   -30.9040   -69.4030 c6         1 UQH       0.175300
     17 O1         -30.9680   -30.7900   -69.8750 oh         1 UQH      -0.649000
     18 C2         -32.3290   -31.0130   -67.8850 c6         1 UQH       0.132300
     19 N2         -42.2970   -29.0630   -65.4200 nu         1 UQH      -0.961200
     20 O2         -31.6230   -32.2180   -67.5700 oh         1 UQH      -0.737000
     21 C3         -33.7620   -31.0240   -67.3280 c6         1 UQH       0.172500
     22 O3         -33.0780   -30.0720   -65.2110 oh         1 UQH      -0.657000
     23 N4         -47.0100   -27.7700   -63.9800 nb         1 UQH      -0.323000
     24 O4         -33.1910   -29.7480   -71.2890 oh         1 UQH      -0.707000
     25 C9         -40.5100   -30.6550   -65.9170 c3         1 UQH      -0.087400
     26 C11        -43.0790   -27.9350   -65.5510 ca         1 UQH       0.315000
     27 C12        -42.6800   -26.8390   -66.3320 ca         1 UQH      -0.169000
     28 C14        -42.9810   -24.5600   -67.2600 cx         1 UQH      -0.090400
     29 C16        -43.2110   -23.1170   -66.8680 cx         1 UQH      -0.121900
     30 C18        -45.0710   -26.7000   -64.9200 cp         1 UQH      -0.107500
     31 C19        -46.3440   -26.6250   -64.1670 cp         1 UQH       0.351500
     32 C23        -44.2960   -27.8520   -64.8560 ca         1 UQH      -0.143000
     33 C25        -33.1150   -29.7100   -69.8630 c6         1 UQH       0.171300
     34 H2         -33.2430   -32.1160   -65.5780 h1         1 UQH       0.028200
     35 H3         -34.7750   -31.2580   -65.4370 h1         1 UQH       0.028200
     36 H4         -35.5320   -29.3540   -66.0780 h1         1 UQH       0.056700
     37 H5         -36.0180   -28.5090   -67.5280 h1         1 UQH       0.056700
     38 H6         -37.0940   -30.5630   -68.4140 hc         1 UQH       0.040700
     39 H7         -36.5540   -31.4780   -67.0180 hc         1 UQH       0.040700
     40 H8         -37.8670   -29.9910   -65.5140 hc         1 UQH       0.040200
     41 H9         -38.3830   -29.0400   -66.8920 hc         1 UQH       0.040200
     42 H10        -39.5790   -31.0110   -67.8310 hc         1 UQH       0.042200
     43 H11        -38.9710   -32.0160   -66.5310 hc         1 UQH       0.042200
     44 H12        -40.4310   -28.5120   -66.1480 h1         1 UQH       0.037700
     45 H13        -41.4390   -29.3260   -67.3380 h1         1 UQH       0.037700
     46 H15        -45.0040   -23.9060   -67.9150 hc         1 UQH       0.072950
     47 H16        -45.2690   -24.7270   -65.7540 ha         1 UQH       0.110000
     48 H17        -46.2720   -24.4930   -63.7980 ha         1 UQH       0.133000
     49 H18        -48.4510   -24.5240   -62.5580 ha         1 UQH       0.131000
     50 H19        -49.5960   -26.7460   -62.2920 h4         1 UQH       0.029100
     51 H20        -35.0600   -28.8690   -69.5390 h1         1 UQH       0.041200
     52 H21        -35.0380   -30.6330   -69.6650 h1         1 UQH       0.041200
     53 H22        -32.7700   -31.8120   -69.8180 h1         1 UQH       0.053700
     54 H23        -30.4640   -31.4850   -69.4300 ho         1 UQH       0.452000
     55 H24        -31.7990   -30.1550   -67.4660 h1         1 UQH       0.073700
     56 H25        -42.7910   -29.8870   -65.1120 hn         1 UQH       0.470000
     57 H26        -31.1780   -32.1080   -66.7220 ho         1 UQH       0.510000
     58 H27        -34.2600   -31.9290   -67.7190 h1         1 UQH       0.039700
     59 H28        -33.0210   -30.2400   -64.2630 ho         1 UQH       0.439000
     60 H29        -33.6080   -28.9310   -71.5900 ho         1 UQH       0.500000
     61 H30        -41.2610   -31.4450   -66.0240 hc         1 UQH       0.047200
     62 H31        -40.2210   -30.6370   -64.8610 hc         1 UQH       0.047200
     63 H32        -41.7550   -26.8820   -66.8900 ha         1 UQH       0.113000
     64 H33        -42.0400   -24.7610   -67.7560 hc         1 UQH       0.079700
     65 H34        -43.7660   -22.9370   -65.9560 hc         1 UQH       0.072950
     66 H35        -42.4110   -22.4150   -67.0600 hc         1 UQH       0.072950
     67 H36        -44.6220   -28.6870   -64.2500 ha         1 UQH       0.131000
     68 H37        -32.6060   -28.7960   -69.5380 h1         1 UQH       0.058700
     69 H14        -43.6580   -23.3900   -69.0320 hc         1 UQH       0.072950
@<TRIPOS>BOND
     1     1     4 1   
     2     1    15 1   
     3     1    21 1   
     4     2    14 ar  
     5     2    23 ar  
     6     3    21 1   
     7     3    22 1   
     8     3    34 1   
     9     3    35 1   
    10     4     5 1   
    11     4    36 1   
    12     4    37 1   
    13     5     6 1   
    14     5    38 1   
    15     5    39 1   
    16     6     7 1   
    17     6    40 1   
    18     6    41 1   
    19     7    25 1   
    20     7    42 1   
    21     7    43 1   
    22     8    19 1   
    23     8    25 1   
    24     8    44 1   
    25     8    45 1   
    26     9    11 ar  
    27     9    27 ar  
    28     9    28 1   
    29    10    28 1   
    30    10    29 1   
    31    10    46 1   
    32    10    69 1   
    33    11    30 ar  
    34    11    47 1   
    35    12    13 ar  
    36    12    31 ar  
    37    12    48 1   
    38    13    14 ar  
    39    13    49 1   
    40    14    50 1   
    41    15    33 1   
    42    15    51 1   
    43    15    52 1   
    44    16    17 1   
    45    16    18 1   
    46    16    33 1   
    47    16    53 1   
    48    17    54 1   
    49    18    20 1   
    50    18    21 1   
    51    18    55 1   
    52    19    26 1   
    53    19    56 1   
    54    20    57 1   
    55    21    58 1   
    56    22    59 1   
    57    23    31 ar  
    58    24    33 1   
    59    24    60 1   
    60    25    61 1   
    61    25    62 1   
    62    26    27 ar  
    63    26    32 ar  
    64    27    63 1   
    65    28    29 1   
    66    28    64 1   
    67    29    65 1   
    68    29    66 1   
    69    30    31 1   
    70    30    32 ar  
    71    32    67 1   
    72    33    68 1   
@<TRIPOS>SUBSTRUCTURE
     1 UQH         1 TEMP              0 ****  ****    0 ROOT
