@<TRIPOS>MOLECULE
UQH
   69    72     1     0     0
SMALL
No Charge or Current Charge


@<TRIPOS>ATOM
      1 N1         -34.2080   -29.7900   -67.6620 n3         1 UQH      -0.722600
      2 N3         -48.0080   -27.9150   -62.8140 nb         1 UQH      -0.312000
      3 C4         -33.5440   -31.4400   -65.7670 c3         1 UQH       0.156600
      4 C5         -35.4820   -29.4340   -66.9720 c3         1 UQH       0.177800
      5 C6         -36.6870   -30.3620   -67.2690 c3         1 UQH      -0.116400
      6 C7         -37.9660   -29.9360   -66.5150 c3         1 UQH      -0.075400
      7 C8         -39.1720   -30.8590   -66.8080 c3         1 UQH      -0.071400
      8 C10        -41.0570   -29.1320   -66.3640 c3         1 UQH       0.212800
      9 C13        -43.6980   -25.5800   -66.5490 ca         1 UQH      -0.005300
     10 C15        -44.4070   -23.6320   -68.2010 cx         1 UQH      -0.121900
     11 C17        -44.8550   -25.5680   -65.7430 ca         1 UQH      -0.147000
     12 C20        -47.0900   -25.4360   -63.6520 ca         1 UQH      -0.110000
     13 C21        -48.2410   -25.5200   -62.8430 ca         1 UQH      -0.119000
     14 C22        -48.6740   -26.7950   -62.4410 ca         1 UQH       0.269900
     15 C24        -34.2800   -29.5660   -69.1390 c6         1 UQH       0.135800
     16 C1         -32.3200   -31.1300   -69.5300 c6         1 UQH       0.175300
     17 O1         -31.0110   -31.3220   -70.1030 oh         1 UQH      -0.649000
     18 C2         -32.2260   -31.3410   -67.9910 c6         1 UQH       0.132300
     19 N2         -42.3100   -28.9150   -65.6260 nu         1 UQH      -0.961200
     20 O2         -31.6520   -32.6450   -67.7230 oh         1 UQH      -0.737000
     21 C3         -33.6340   -31.1480   -67.3160 c6         1 UQH       0.172500
     22 O3         -32.6260   -30.5800   -65.0660 oh         1 UQH      -0.657000
     23 N4         -46.9060   -27.8290   -63.5900 nb         1 UQH      -0.323000
     24 O4         -33.0500   -29.5140   -71.2740 oh         1 UQH      -0.707000
     25 C9         -40.4520   -30.5070   -66.0110 c3         1 UQH      -0.087400
     26 C11        -43.1440   -27.7940   -65.6790 ca         1 UQH       0.315000
     27 C12        -42.8480   -26.6990   -66.5070 ca         1 UQH      -0.169000
     28 C14        -43.3520   -24.4230   -67.4580 cx         1 UQH      -0.090400
     29 C16        -43.6310   -22.9840   -67.0800 cx         1 UQH      -0.121900
     30 C18        -45.1840   -26.6540   -64.8890 cp         1 UQH      -0.107500
     31 C19        -46.4240   -26.6340   -64.0280 cp         1 UQH       0.351500
     32 C23        -44.2990   -27.7670   -64.8840 ca         1 UQH      -0.143000
     33 C25        -32.9030   -29.7190   -69.8480 c6         1 UQH       0.171300
     34 H2         -33.2460   -32.4880   -65.6310 h1         1 UQH       0.028200
     35 H3         -34.5470   -31.3570   -65.3300 h1         1 UQH       0.028200
     36 H4         -35.3240   -29.4050   -65.8860 h1         1 UQH       0.056700
     37 H5         -35.7670   -28.4110   -67.2540 h1         1 UQH       0.056700
     38 H6         -36.8970   -30.3620   -68.3450 hc         1 UQH       0.040700
     39 H7         -36.4390   -31.3920   -66.9890 hc         1 UQH       0.040700
     40 H8         -37.7650   -29.9370   -65.4360 hc         1 UQH       0.040200
     41 H9         -38.2140   -28.9050   -66.7950 hc         1 UQH       0.040200
     42 H10        -39.3980   -30.8340   -67.8810 hc         1 UQH       0.042200
     43 H11        -38.8920   -31.8930   -66.5710 hc         1 UQH       0.042200
     44 H12        -40.3390   -28.3390   -66.1140 h1         1 UQH       0.037700
     45 H13        -41.2490   -29.0890   -67.4460 h1         1 UQH       0.037700
     46 H15        -45.4530   -23.8720   -68.0250 hc         1 UQH       0.072950
     47 H16        -45.5180   -24.7100   -65.7920 ha         1 UQH       0.110000
     48 H17        -46.7180   -24.4660   -63.9650 ha         1 UQH       0.133000
     49 H18        -48.7790   -24.6290   -62.5310 ha         1 UQH       0.131000
     50 H19        -49.5550   -26.9260   -61.8150 h4         1 UQH       0.029100
     51 H20        -34.6650   -28.5560   -69.3430 h1         1 UQH       0.041200
     52 H21        -34.9860   -30.2760   -69.5950 h1         1 UQH       0.041200
     53 H22        -33.0140   -31.8840   -69.9320 h1         1 UQH       0.053700
     54 H23        -30.6370   -32.0730   -69.5870 ho         1 UQH       0.452000
     55 H24        -31.5640   -30.5560   -67.5930 h1         1 UQH       0.073700
     56 H25        -42.6080   -29.6610   -64.9950 hn         1 UQH       0.470000
     57 H26        -31.3460   -32.6340   -66.7850 ho         1 UQH       0.510000
     58 H27        -34.2960   -31.9210   -67.7330 h1         1 UQH       0.039700
     59 H28        -32.7520   -30.7470   -64.1060 ho         1 UQH       0.439000
     60 H29        -33.1240   -28.5420   -71.4160 ho         1 UQH       0.500000
     61 H30        -41.2010   -31.2840   -66.2070 hc         1 UQH       0.047200
     62 H31        -40.2300   -30.5440   -64.9380 hc         1 UQH       0.047200
     63 H32        -41.9560   -26.7140   -67.1250 ha         1 UQH       0.113000
     64 H33        -42.4250   -24.5930   -68.0010 hc         1 UQH       0.079700
     65 H34        -44.1530   -22.7860   -66.1470 hc         1 UQH       0.072950
     66 H35        -42.8850   -22.2390   -67.3460 hc         1 UQH       0.072950
     67 H36        -44.5080   -28.6200   -64.2450 ha         1 UQH       0.131000
     68 H37        -32.2190   -28.9650   -69.4290 h1         1 UQH       0.058700
     69 H14        -44.1820   -23.3220   -69.2190 hc         1 UQH       0.072950
@<TRIPOS>BOND
     1     1     4 1   
     2     1    15 1   
     3     1    21 1   
     4     2    14 ar  
     5     2    23 ar  
     6     3    21 1   
     7     3    22 1   
     8     3    34 1   
     9     3    35 1   
    10     4     5 1   
    11     4    36 1   
    12     4    37 1   
    13     5     6 1   
    14     5    38 1   
    15     5    39 1   
    16     6     7 1   
    17     6    40 1   
    18     6    41 1   
    19     7    25 1   
    20     7    42 1   
    21     7    43 1   
    22     8    19 1   
    23     8    25 1   
    24     8    44 1   
    25     8    45 1   
    26     9    11 ar  
    27     9    27 ar  
    28     9    28 1   
    29    10    28 1   
    30    10    29 1   
    31    10    46 1   
    32    10    69 1   
    33    11    30 ar  
    34    11    47 1   
    35    12    13 ar  
    36    12    31 ar  
    37    12    48 1   
    38    13    14 ar  
    39    13    49 1   
    40    14    50 1   
    41    15    33 1   
    42    15    51 1   
    43    15    52 1   
    44    16    17 1   
    45    16    18 1   
    46    16    33 1   
    47    16    53 1   
    48    17    54 1   
    49    18    20 1   
    50    18    21 1   
    51    18    55 1   
    52    19    26 1   
    53    19    56 1   
    54    20    57 1   
    55    21    58 1   
    56    22    59 1   
    57    23    31 ar  
    58    24    33 1   
    59    24    60 1   
    60    25    61 1   
    61    25    62 1   
    62    26    27 ar  
    63    26    32 ar  
    64    27    63 1   
    65    28    29 1   
    66    28    64 1   
    67    29    65 1   
    68    29    66 1   
    69    30    31 1   
    70    30    32 ar  
    71    32    67 1   
    72    33    68 1   
@<TRIPOS>SUBSTRUCTURE
     1 UQH         1 TEMP              0 ****  ****    0 ROOT
