@<TRIPOS>MOLECULE
UQI
   55    58     1     0     0
SMALL
No Charge or Current Charge


@<TRIPOS>ATOM
      1 CAZ         -6.3410     5.7950   -26.7210 ca         1 UQI      -0.003500
      2 CBA         -6.1190     4.7610   -27.6470 ca         1 UQI       0.104000
      3 ClBB        -6.8440     3.1780   -27.3860 cl         1 UQI      -0.191500
      4 CBC         -5.3190     4.9850   -28.7790 ca         1 UQI      -0.049000
      5 CBD         -4.7260     6.2420   -28.9780 ca         1 UQI       0.104000
      6 ClBE        -3.7140     6.5200   -30.3900 cl         1 UQI      -0.191500
      7 CBF         -4.9310     7.2760   -28.0490 ca         1 UQI      -0.003500
      8 CAY         -5.7570     7.0620   -26.9250 ca         1 UQI      -0.188500
      9 SAC         -5.9900     8.3690   -25.7120 sy         1 UQI       0.985100
     10 NAB         -4.8440     9.3650   -25.6670 n2         1 UQI      -0.797900
     11 OAD         -6.6670     7.8450   -24.5270 o          1 UQI      -0.533000
     12 N           -7.0660     9.4690   -26.4340 n3         1 UQI      -0.797500
     13 CA          -7.8360    10.3790   -25.5020 c6         1 UQI       0.165500
     14 C           -9.0700     9.7630   -24.7520 c          1 UQI       0.559000
     15 O           -9.1600     9.8460   -23.5310 o          1 UQI      -0.565000
     16 CB          -8.2150    11.6870   -26.2600 c6         1 UQI      -0.076400
     17 CAH         -8.8890    11.4560   -27.6280 c6         1 UQI      -0.075400
     18 CAG         -8.0170    10.5070   -28.4780 c6         1 UQI      -0.084400
     19 CAF         -7.7440     9.1680   -27.7430 c6         1 UQI       0.241500
     20 CAV         -9.0470     8.2740   -27.7100 c3         1 UQI      -0.056500
     21 CAW         -8.9170     7.0500   -28.6210 c2         1 UQI      -0.224200
     22 CAX         -9.1670     5.7630   -28.3210 c2         1 UQI      -0.311000
     23 CAU         -9.5920     7.9320   -26.3090 c3         1 UQI       0.122000
     24 NAM        -10.0520     9.0900   -25.5080 n          1 UQI      -0.400800
     25 CAN        -11.4490     9.0090   -24.9840 c3         1 UQI       0.043700
     26 CAO        -11.8470     7.7150   -24.2610 ca         1 UQI       0.314300
     27 NAP        -11.5120     7.6060   -22.9520 nb         1 UQI      -0.648000
     28 CAQ        -11.8570     6.4750   -22.2940 ca         1 UQI       0.337900
     29 CAR        -12.5520     5.4180   -22.9060 ca         1 UQI      -0.164000
     30 CAS        -12.9130     5.5300   -24.2580 ca         1 UQI      -0.073000
     31 CAT        -12.5550     6.7030   -24.9410 ca         1 UQI      -0.158000
     32 HAZ         -6.9630     5.6030   -25.8500 ha         1 UQI       0.159000
     33 HBC         -5.1530     4.1850   -29.4950 ha         1 UQI       0.145000
     34 HBF         -4.4560     8.2420   -28.2100 ha         1 UQI       0.159000
     35 H1          -5.2780    10.1810   -26.1110 hn         1 UQI       0.430400
     36 HA          -7.1750    10.6890   -24.6790 h1         1 UQI       0.105700
     37 HB2         -7.2990    12.2730   -26.4170 hc         1 UQI       0.064200
     38 HB1         -8.8610    12.3100   -25.6260 hc         1 UQI       0.064200
     39 HAJ         -9.0120    12.4160   -28.1490 hc         1 UQI       0.048700
     40 HAI         -9.8990    11.0490   -27.4910 hc         1 UQI       0.048700
     41 HAH         -7.0590    10.9960   -28.7010 hc         1 UQI       0.048200
     42 HAG         -8.4950    10.3210   -29.4490 hc         1 UQI       0.048200
     43 HAF         -7.0380     8.6520   -28.4040 h1         1 UQI       0.070700
     44 HAV         -9.8590     8.8530   -28.1650 hc         1 UQI       0.072700
     45 HAW         -8.5930     7.3000   -29.6350 ha         1 UQI       0.172000
     46 HB5         -9.0430     4.9780   -29.0690 ha         1 UQI       0.167000
     47 HAX         -9.4950     5.4300   -27.3360 ha         1 UQI       0.167000
     48 HB4        -10.4450     7.2610   -26.4560 h1         1 UQI       0.048200
     49 HAU         -8.8450     7.3660   -25.7420 h1         1 UQI       0.048200
     50 HAN        -11.6280     9.8530   -24.3060 h1         1 UQI       0.077700
     51 HB3        -12.1320     9.1520   -25.8310 h1         1 UQI       0.077700
     52 HAQ        -11.5690     6.4160   -21.2450 h4         1 UQI       0.026100
     53 HAR        -12.8070     4.5310   -22.3330 ha         1 UQI       0.125000
     54 HAS        -13.4560     4.7320   -24.7610 ha         1 UQI       0.120000
     55 HAT        -12.8190     6.8270   -25.9880 ha         1 UQI       0.120000
@<TRIPOS>BOND
     1     1     2 ar  
     2     1     8 ar  
     3     1    32 1   
     4     2     3 1   
     5     2     4 ar  
     6     4     5 ar  
     7     4    33 1   
     8     5     6 1   
     9     5     7 ar  
    10     7     8 ar  
    11     7    34 1   
    12     8     9 1   
    13     9    10 2   
    14     9    11 2   
    15     9    12 1   
    16    10    35 1   
    17    12    13 1   
    18    12    19 1   
    19    13    14 1   
    20    13    16 1   
    21    13    36 1   
    22    14    15 2   
    23    14    24 1   
    24    16    17 1   
    25    16    37 1   
    26    16    38 1   
    27    17    18 1   
    28    17    39 1   
    29    17    40 1   
    30    18    19 1   
    31    18    41 1   
    32    18    42 1   
    33    19    20 1   
    34    19    43 1   
    35    20    21 1   
    36    20    23 1   
    37    20    44 1   
    38    21    22 2   
    39    21    45 1   
    40    22    46 1   
    41    22    47 1   
    42    23    24 1   
    43    23    48 1   
    44    23    49 1   
    45    24    25 1   
    46    25    26 1   
    47    25    50 1   
    48    25    51 1   
    49    26    27 ar  
    50    26    31 ar  
    51    27    28 ar  
    52    28    29 ar  
    53    28    52 1   
    54    29    30 ar  
    55    29    53 1   
    56    30    31 ar  
    57    30    54 1   
    58    31    55 1   
@<TRIPOS>SUBSTRUCTURE
     1 UQI         1 TEMP              0 ****  ****    0 ROOT
