@<TRIPOS>MOLECULE
UQI
   55    58     1     0     0
SMALL
abcg2


@<TRIPOS>ATOM
      1 CAZ         -6.4750     6.5430   -24.7150 ca         1 UQI      -0.003500
      2 CBA         -6.9040     5.2330   -24.5490 ca         1 UQI       0.104000
      3 CLBB        -6.9640     4.5580   -22.9440 cl         1 UQI      -0.191500
      4 CBC         -7.2730     4.4420   -25.6270 ca         1 UQI      -0.049000
      5 CBD         -7.1730     4.9850   -26.9030 ca         1 UQI       0.104000
      6 CLBE        -7.6540     4.0190   -28.2720 cl         1 UQI      -0.191500
      7 CBF         -6.7140     6.2750   -27.1160 ca         1 UQI      -0.003500
      8 CAY         -6.3810     7.0440   -26.0050 ca         1 UQI      -0.188500
      9 SAC         -5.9200     8.7540   -26.2160 sy         1 UQI       0.985100
     10 NAB         -5.0360     8.7220   -27.4460 n2         1 UQI      -0.797900
     11 OAD         -5.4490     9.2200   -24.9210 o          1 UQI      -0.533000
     12 N           -7.3240     9.5730   -26.5040 n3         1 UQI      -0.797500
     13 CA          -8.0630    10.1970   -25.4070 c6         1 UQI       0.165500
     14 C           -9.4720     9.6570   -25.1170 c          1 UQI       0.559000
     15 O           -9.9980    10.0770   -24.0820 o          1 UQI      -0.565000
     16 CB          -8.0720    11.7230   -25.5930 c6         1 UQI      -0.076400
     17 CAH         -8.5550    12.1270   -26.9830 c6         1 UQI      -0.075400
     18 CAG         -7.7490    11.4130   -28.0680 c6         1 UQI      -0.084400
     19 CAF         -7.7520     9.8960   -27.8700 c6         1 UQI       0.241500
     20 CAV         -9.1340     9.2560   -28.2070 c3         1 UQI      -0.056500
     21 CAW         -9.0680     8.7110   -29.6100 c2         1 UQI      -0.224200
     22 CAX         -9.2390     7.4510   -29.9940 c2         1 UQI      -0.311000
     23 CAU         -9.5780     8.2180   -27.1910 c3         1 UQI       0.122000
     24 NAM        -10.0840     8.7660   -25.9270 n          1 UQI      -0.400800
     25 CAN        -11.3560     8.1750   -25.4880 c3         1 UQI       0.043700
     26 CAO        -11.1770     6.7190   -25.1230 ca         1 UQI       0.314300
     27 NAP        -10.5760     6.4670   -23.9530 nb         1 UQI      -0.648000
     28 CAQ        -10.3690     5.1940   -23.6110 ca         1 UQI       0.337900
     29 CAR        -10.7300     4.1180   -24.4130 ca         1 UQI      -0.164000
     30 CAS        -11.3530     4.3810   -25.6250 ca         1 UQI      -0.073000
     31 CAT        -11.5870     5.7030   -25.9820 ca         1 UQI      -0.158000
     32 HAZ         -6.2090     7.1530   -23.8650 ha         1 UQI       0.159000
     33 HBC         -7.6250     3.4320   -25.4800 ha         1 UQI       0.145000
     34 HBF         -6.6360     6.6770   -28.1140 ha         1 UQI       0.159000
     35 H1          -4.7710     9.6590   -27.7440 hn         1 UQI       0.430400
     36 HA          -7.5230     9.9760   -24.4900 h1         1 UQI       0.105700
     37 HB2         -7.0460    12.0690   -25.4440 hc         1 UQI       0.064200
     38 HB1         -8.6890    12.1690   -24.8140 hc         1 UQI       0.064200
     39 HAJ         -8.4660    13.2080   -27.1050 hc         1 UQI       0.048700
     40 HAI         -9.6190    11.8910   -27.0850 hc         1 UQI       0.048700
     41 HAH         -6.7130    11.7610   -28.0440 hc         1 UQI       0.048200
     42 HAG         -8.1480    11.6390   -29.0590 hc         1 UQI       0.048200
     43 HAF         -7.0110     9.4530   -28.5290 h1         1 UQI       0.070700
     44 HAV         -9.8880    10.0490   -28.2030 hc         1 UQI       0.072700
     45 HAW         -8.8150     9.4550   -30.3610 ha         1 UQI       0.172000
     46 HB5         -9.1400     7.1730   -31.0360 ha         1 UQI       0.167000
     47 HAX         -9.4780     6.6510   -29.3030 ha         1 UQI       0.167000
     48 HB4        -10.4140     7.6750   -27.6220 h1         1 UQI       0.048200
     49 HAU         -8.8000     7.4830   -26.9980 h1         1 UQI       0.048200
     50 HAN        -11.7030     8.7330   -24.6250 h1         1 UQI       0.077700
     51 HB3        -12.0800     8.2760   -26.2970 h1         1 UQI       0.077700
     52 HAQ         -9.8870     5.0260   -22.6560 h4         1 UQI       0.026100
     53 HAR        -10.5240     3.1060   -24.0910 ha         1 UQI       0.125000
     54 HAS        -11.6510     3.5740   -26.2810 ha         1 UQI       0.120000
     55 HAT        -12.0730     5.9480   -26.9170 ha         1 UQI       0.120000
@<TRIPOS>BOND
     1     1     2 ar  
     2     1     8 ar  
     3     1    32 1   
     4     2     3 1   
     5     2     4 ar  
     6     4     5 ar  
     7     4    33 1   
     8     5     6 1   
     9     5     7 ar  
    10     7     8 ar  
    11     7    34 1   
    12     8     9 1   
    13     9    10 2   
    14     9    11 2   
    15     9    12 1   
    16    10    35 1   
    17    12    13 1   
    18    12    19 1   
    19    13    14 1   
    20    13    16 1   
    21    13    36 1   
    22    14    15 2   
    23    14    24 1   
    24    16    17 1   
    25    16    37 1   
    26    16    38 1   
    27    17    18 1   
    28    17    39 1   
    29    17    40 1   
    30    18    19 1   
    31    18    41 1   
    32    18    42 1   
    33    19    20 1   
    34    19    43 1   
    35    20    21 1   
    36    20    23 1   
    37    20    44 1   
    38    21    22 2   
    39    21    45 1   
    40    22    46 1   
    41    22    47 1   
    42    23    24 1   
    43    23    48 1   
    44    23    49 1   
    45    24    25 1   
    46    25    26 1   
    47    25    50 1   
    48    25    51 1   
    49    26    27 ar  
    50    26    31 ar  
    51    27    28 ar  
    52    28    29 ar  
    53    28    52 1   
    54    29    30 ar  
    55    29    53 1   
    56    30    31 ar  
    57    30    54 1   
    58    31    55 1   
@<TRIPOS>SUBSTRUCTURE
     1 UQI         1 TEMP              0 ****  ****    0 ROOT
