@<TRIPOS>MOLECULE
UQJ
   19    19     1     0     0
SMALL
No Charge or Current Charge


@<TRIPOS>ATOM
      1 N1          13.7730    13.8040   -39.0510 nt         1 UQJ      -0.594000
      2 C4          13.4090    11.7090   -36.8380 cc         1 UQJ       0.191300
      3 C5          14.8450    12.1710   -36.6680 c3         1 UQJ       0.154000
      4 N           11.6060    10.6400   -36.4920 na         1 UQJ       0.146800
      5 C           10.6880     9.6890   -35.8520 c3         1 UQJ       0.068900
      6 O           11.6810    13.4410   -39.6500 o          1 UQJ      -0.620100
      7 C1          11.3200    11.4680   -37.5750 cd         1 UQJ      -0.106000
      8 C2          12.4740    12.1630   -37.8090 cc         1 UQJ      -0.237600
      9 C3          12.5990    13.1680   -38.8940 c          1 UQJ       0.653700
     10 F           15.5890    11.9320   -37.7740 f          1 UQJ      -0.119000
     11 F1          14.9240    13.4960   -36.4020 f          1 UQJ      -0.119000
     12 N2          12.9040    10.7900   -36.0340 nd         1 UQJ      -0.506800
     13 H4          13.8640    14.4880   -39.7870 hn         1 UQJ       0.319500
     14 H5          14.5470    13.5980   -38.4410 hn         1 UQJ       0.319500
     15 H6          15.3040    11.6330   -35.8320 h2         1 UQJ       0.083700
     16 H2          10.5350     9.9760   -34.8050 h1         1 UQJ       0.063367
     17 H            9.7240     9.6940   -36.3740 h1         1 UQJ       0.063367
     18 H1          11.1170     8.6810   -35.8940 h1         1 UQJ       0.063367
     19 H3          10.3550    11.4920   -38.0700 h4         1 UQJ       0.176000
@<TRIPOS>BOND
     1     1     9 1   
     2     1    13 1   
     3     1    14 1   
     4     2     3 1   
     5     2     8 1   
     6     2    12 2   
     7     3    10 1   
     8     3    11 1   
     9     3    15 1   
    10     4     5 1   
    11     4     7 1   
    12     4    12 1   
    13     5    16 1   
    14     5    17 1   
    15     5    18 1   
    16     6     9 2   
    17     7     8 2   
    18     7    19 1   
    19     8     9 1   
@<TRIPOS>SUBSTRUCTURE
     1 UQJ         1 TEMP              0 ****  ****    0 ROOT
