@<TRIPOS>MOLECULE
UQJ
   19    19     1     0     0
SMALL
abcg2


@<TRIPOS>ATOM
      1 N1          13.6160    13.9950   -38.9700 nt         1 UQJ      -0.594000
      2 C4          13.4490    11.6820   -36.8840 cc         1 UQJ       0.191300
      3 C5          14.8870    11.9730   -36.6600 c3         1 UQJ       0.154000
      4 N           11.6320    10.6810   -36.5140 na         1 UQJ       0.146800
      5 C           10.7170     9.7880   -35.8390 c3         1 UQJ       0.068900
      6 O           11.8260    13.0100   -39.9200 o          1 UQJ      -0.620100
      7 C1          11.3800    11.4550   -37.5740 cd         1 UQJ      -0.106000
      8 C2          12.5400    12.1460   -37.8630 cc         1 UQJ      -0.237600
      9 C3          12.6330    13.0840   -39.0010 c          1 UQJ       0.653700
     10 F           15.6050    11.7420   -37.7920 f          1 UQJ      -0.119000
     11 F1          15.0750    13.2950   -36.3590 f          1 UQJ      -0.119000
     12 N2          12.8810    10.7990   -36.0890 nd         1 UQJ      -0.506800
     13 H4          13.6900    14.6640   -39.7200 hn         1 UQJ       0.319500
     14 H5          14.1690    14.1700   -38.1500 hn         1 UQJ       0.319500
     15 H6          15.2970    11.3760   -35.8450 h2         1 UQJ       0.083700
     16 H2          10.5780    10.1050   -34.8080 h1         1 UQJ       0.063367
     17 H            9.7610     9.8120   -36.3520 h1         1 UQJ       0.063367
     18 H1          11.1070     8.7730   -35.8570 h1         1 UQJ       0.063367
     19 H3          10.4130    11.4820   -38.0470 h4         1 UQJ       0.176000
@<TRIPOS>BOND
     1     1     9 1   
     2     1    13 1   
     3     1    14 1   
     4     2     3 1   
     5     2     8 1   
     6     2    12 2   
     7     3    10 1   
     8     3    11 1   
     9     3    15 1   
    10     4     5 1   
    11     4     7 1   
    12     4    12 1   
    13     5    16 1   
    14     5    17 1   
    15     5    18 1   
    16     6     9 2   
    17     7     8 2   
    18     7    19 1   
    19     8     9 1   
@<TRIPOS>SUBSTRUCTURE
     1 UQJ         1 TEMP              0 ****  ****    0 ROOT
