@<TRIPOS>MOLECULE
UQK
   19    18     1     0     0
SMALL
No Charge or Current Charge


@<TRIPOS>ATOM
      1 C           58.7340    18.0160    12.3740 c          1 UQK       0.714000
      2 CB          60.2650    16.6490    13.8940 c3         1 UQK      -0.069600
      3 CA          58.7890    16.8590    13.4540 c3         1 UQK      -0.016600
      4 C03         58.2150    15.5570    12.8280 c3         1 UQK      -0.069600
      5 C05         57.7050    16.5960    15.8090 c          1 UQK       0.444100
      6 C07         56.7290    17.4220    16.8420 c          1 UQK       0.654000
      7 N           57.9590    17.2790    14.6210 ns         1 UQK      -0.476900
      8 O06         58.1750    15.4790    16.0500 o          1 UQK      -0.705100
      9 O08         56.3200    18.5290    16.4940 o          1 UQK      -0.723500
     10 O09         56.4360    16.9160    17.9240 o          1 UQK      -0.723500
     11 OXT         58.0720    19.0190    12.6180 o          1 UQK      -0.741000
     12 O           59.3530    17.8810    11.3250 o          1 UQK      -0.741000
     13 HB1         60.3600    15.8380    14.6240 hc         1 UQK       0.015700
     14 HB3         60.8960    16.3910    13.0350 hc         1 UQK       0.015700
     15 HB2         60.6680    17.5640    14.3440 hc         1 UQK       0.015700
     16 H031        58.2540    14.7170    13.5300 hc         1 UQK       0.015700
     17 H032        57.1700    15.7020    12.5270 hc         1 UQK       0.015700
     18 H033        58.7850    15.2670    11.9380 hc         1 UQK       0.015700
     19 H           57.5120    18.1910    14.5460 hn         1 UQK       0.361500
@<TRIPOS>BOND
     1     1     3 1   
     2     1    11 1   
     3     1    12 1   
     4     2     3 1   
     5     2    13 1   
     6     2    14 1   
     7     2    15 1   
     8     3     4 1   
     9     3     7 1   
    10     4    16 1   
    11     4    17 1   
    12     4    18 1   
    13     5     6 1   
    14     5     7 1   
    15     5     8 2   
    16     6     9 1   
    17     6    10 1   
    18     7    19 1   
@<TRIPOS>SUBSTRUCTURE
     1 UQK         1 TEMP              0 ****  ****    0 ROOT
