@<TRIPOS>MOLECULE
UQK
   19    18     1     0     0
SMALL
bcc


@<TRIPOS>ATOM
      1 C           58.7070    18.0100    12.4340 c          1 UQK       0.924600
      2 CB          60.2310    16.6570    13.9050 c3         1 UQK      -0.069600
      3 CA          58.7700    16.8620    13.4930 c3         1 UQK      -0.016600
      4 C03         58.2130    15.5810    12.8650 c3         1 UQK      -0.069600
      5 C05         57.7140    16.6170    15.7560 c          1 UQK       0.511100
      6 C07         56.7850    17.4050    16.7400 c          1 UQK       0.864600
      7 N           57.9640    17.2790    14.6260 ns         1 UQK      -0.543900
      8 O06         58.1450    15.5030    16.0380 o          1 UQK      -0.705100
      9 O08         56.3990    18.5250    16.3520 o          1 UQK      -0.828800
     10 O09         56.5300    16.8290    17.8050 o          1 UQK      -0.828800
     11 OXT         58.0250    19.0160    12.7170 o          1 UQK      -0.846300
     12 O           59.3510    17.8130    11.3890 o          1 UQK      -0.846300
     13 HB1         60.3230    15.8680    14.6520 hc         1 UQK       0.015700
     14 HB3         60.8340    16.3750    13.0430 hc         1 UQK       0.015700
     15 HB2         60.6500    17.5720    14.3280 hc         1 UQK       0.015700
     16 H031        58.2530    14.7490    13.5660 hc         1 UQK       0.015700
     17 H032        57.1730    15.7160    12.5600 hc         1 UQK       0.015700
     18 H033        58.7900    15.3080    11.9830 hc         1 UQK       0.015700
     19 H           57.5370    18.1900    14.5240 hn         1 UQK       0.361500
@<TRIPOS>BOND
     1     1     3 1   
     2     1    11 1   
     3     1    12 1   
     4     2     3 1   
     5     2    13 1   
     6     2    14 1   
     7     2    15 1   
     8     3     4 1   
     9     3     7 1   
    10     4    16 1   
    11     4    17 1   
    12     4    18 1   
    13     5     6 1   
    14     5     7 1   
    15     5     8 2   
    16     6     9 1   
    17     6    10 1   
    18     7    19 1   
@<TRIPOS>SUBSTRUCTURE
     1 UQK         1 TEMP              0 ****  ****    0 ROOT
