@<TRIPOS>MOLECULE
UQL
   33    34     1     0     0
SMALL
No Charge or Current Charge


@<TRIPOS>ATOM
      1 C11         64.0330    75.6890   108.8940 c3         1 UQL       0.168800
      2 C13         61.9150    74.4600   108.4320 c3         1 UQL       0.156100
      3 C1          66.8830    74.1600   113.8220 ca         1 UQL      -0.085000
      4 C2          67.8560    74.6520   112.9220 ca         1 UQL      -0.121000
      5 C3          67.4900    74.7870   111.5770 ca         1 UQL      -0.040200
      6 C4          66.2400    74.4590   111.1360 ca         1 UQL      -0.087800
      7 C5          65.2500    73.9690   111.9990 ca         1 UQL      -0.053000
      8 C6          65.5870    73.8220   113.3610 ca         1 UQL       0.096000
      9 C7          67.4740    75.2140   109.3300 cc         1 UQL      -0.047300
     10 C8          66.2280    74.7270   109.7160 cd         1 UQL      -0.129400
     11 C10         65.0420    74.5160   108.8080 c3         1 UQL      -0.038200
     12 N1          68.2430    75.2400   110.5090 na         1 UQL      -0.232700
     13 N2          62.8180    75.5670   108.0420 n3         1 UQL      -0.728600
     14 Cl1         64.3890    73.2130   114.4960 cl         1 UQL      -0.228000
     15 H1          64.5690    76.6120   108.6340 h1         1 UQL       0.054200
     16 H2          63.7300    75.7970   109.9450 h1         1 UQL       0.054200
     17 H3          61.6860    74.5040   109.5050 h1         1 UQL       0.029200
     18 H4          60.9670    74.5240   107.8820 h1         1 UQL       0.029200
     19 H5          62.3680    73.4830   108.2150 h1         1 UQL       0.029200
     20 H6          67.1290    74.0420   114.8740 ha         1 UQL       0.128000
     21 H7          68.8540    74.9160   113.2650 ha         1 UQL       0.118000
     22 H8          64.2580    73.7120   111.6370 ha         1 UQL       0.131000
     23 H9          68.9510    76.1210   108.0410 hc         1 UQL       0.051033
     24 H10         68.0500    74.7850   107.3010 hc         1 UQL       0.051033
     25 H11         67.2740    76.3650   107.5210 hc         1 UQL       0.051033
     26 H12         64.5410    73.5790   109.0780 hc         1 UQL       0.045700
     27 H13         65.3810    74.3980   107.7730 hc         1 UQL       0.045700
     28 H14         63.7160    76.4730   106.3310 h1         1 UQL       0.029200
     29 H15         63.6180    74.6960   106.2600 h1         1 UQL       0.029200
     30 H16         62.1580    75.6800   106.0190 h1         1 UQL       0.029200
     31 H17         69.2080    75.5470   110.5700 hn         1 UQL       0.350000
     32 C9          67.9650    75.6450   107.9750 c3         1 UQL      -0.039900
     33 C12         63.0950    75.6040   106.5870 c3         1 UQL       0.156100
@<TRIPOS>BOND
     1     1    11 1   
     2     1    13 1   
     3     1    15 1   
     4     1    16 1   
     5     2    13 1   
     6     2    17 1   
     7     2    18 1   
     8     2    19 1   
     9     3     4 ar  
    10     3     8 ar  
    11     3    20 1   
    12     4     5 ar  
    13     4    21 1   
    14     5     6 ar  
    15     5    12 1   
    16     6     7 ar  
    17     6    10 1   
    18     7     8 ar  
    19     7    22 1   
    20     8    14 1   
    21     9    10 2   
    22     9    12 1   
    23     9    32 1   
    24    10    11 1   
    25    11    26 1   
    26    11    27 1   
    27    12    31 1   
    28    13    33 1   
    29    23    32 1   
    30    24    32 1   
    31    25    32 1   
    32    28    33 1   
    33    29    33 1   
    34    30    33 1   
@<TRIPOS>SUBSTRUCTURE
     1 UQL         1 TEMP              0 ****  ****    0 ROOT
