@<TRIPOS>MOLECULE
UQL
   33    34     1     0     0
SMALL
abcg2


@<TRIPOS>ATOM
      1 C11         64.0660    75.7170   108.8410 c3         1 UQL       0.168800
      2 C13         61.9280    74.5910   108.5170 c3         1 UQL       0.156100
      3 C1          66.8790    74.1310   113.7740 ca         1 UQL      -0.085000
      4 C2          67.8450    74.6140   112.9010 ca         1 UQL      -0.121000
      5 C3          67.5010    74.7560   111.5600 ca         1 UQL      -0.040200
      6 C4          66.2090    74.4220   111.0730 ca         1 UQL      -0.087800
      7 C5          65.2450    73.9350   111.9640 ca         1 UQL      -0.053000
      8 C6          65.6040    73.8020   113.2930 ca         1 UQL       0.096000
      9 C7          67.4560    75.1600   109.3420 cc         1 UQL      -0.047300
     10 C8          66.2040    74.6810   109.6590 cd         1 UQL      -0.129400
     11 C10         65.0300    74.5130   108.7500 c3         1 UQL      -0.038200
     12 N1          68.2330    75.1980   110.4870 na         1 UQL      -0.232700
     13 N2          62.8320    75.6370   108.0650 n3         1 UQL      -0.728600
     14 CL1         64.4120    73.1950   114.4410 cl         1 UQL      -0.228000
     15 H1          64.6070    76.6130   108.5230 h1         1 UQL       0.054200
     16 H2          63.7900    75.8640   109.8890 h1         1 UQL       0.054200
     17 H3          61.7770    74.6760   109.5950 h1         1 UQL       0.029200
     18 H4          60.9600    74.7070   108.0230 h1         1 UQL       0.029200
     19 H5          62.2910    73.5730   108.3020 h1         1 UQL       0.029200
     20 H6          67.1050    74.0060   114.8240 ha         1 UQL       0.128000
     21 H7          68.8330    74.8700   113.2610 ha         1 UQL       0.118000
     22 H8          64.2500    73.6730   111.6300 ha         1 UQL       0.131000
     23 H9          68.2610    76.6760   108.0640 hc         1 UQL       0.051033
     24 H10         68.9320    75.0690   107.7940 hc         1 UQL       0.051033
     25 H11         67.2960    75.4500   107.2380 hc         1 UQL       0.051033
     26 H12         64.4930    73.5990   109.0150 hc         1 UQL       0.045700
     27 H13         65.3660    74.3930   107.7180 hc         1 UQL       0.045700
     28 H14         63.7170    76.3930   106.3260 h1         1 UQL       0.029200
     29 H15         63.4920    74.6320   106.2870 h1         1 UQL       0.029200
     30 H16         62.0970    75.7080   106.1100 h1         1 UQL       0.029200
     31 H17         69.1890    75.5100   110.5220 hn         1 UQL       0.350000
     32 C9          68.0140    75.6110   108.0390 c3         1 UQL      -0.039900
     33 C12         63.0500    75.5820   106.6280 c3         1 UQL       0.156100
@<TRIPOS>BOND
     1     1    11 1   
     2     1    13 1   
     3     1    15 1   
     4     1    16 1   
     5     2    13 1   
     6     2    17 1   
     7     2    18 1   
     8     2    19 1   
     9     3     4 ar  
    10     3     8 ar  
    11     3    20 1   
    12     4     5 ar  
    13     4    21 1   
    14     5     6 ar  
    15     5    12 1   
    16     6     7 ar  
    17     6    10 1   
    18     7     8 ar  
    19     7    22 1   
    20     8    14 1   
    21     9    10 2   
    22     9    12 1   
    23     9    32 1   
    24    10    11 1   
    25    11    26 1   
    26    11    27 1   
    27    12    31 1   
    28    13    33 1   
    29    23    32 1   
    30    24    32 1   
    31    25    32 1   
    32    28    33 1   
    33    29    33 1   
    34    30    33 1   
@<TRIPOS>SUBSTRUCTURE
     1 UQL         1 TEMP              0 ****  ****    0 ROOT
