@<TRIPOS>MOLECULE
UQM
   26    26     1     0     0
SMALL
No Charge or Current Charge


@<TRIPOS>ATOM
      1 N1          -8.8940    -9.3030   -34.4810 nt         1 UQM      -0.612000
      2 C4          -8.3100    -7.6280   -38.5680 ca         1 UQM      -0.078000
      3 C5          -9.0500    -8.5190   -37.7690 ca         1 UQM      -0.079300
      4 C6          -8.3360    -9.5140   -36.8590 c3         1 UQM      -0.114100
      5 C7          -8.0730    -8.9050   -35.4770 c          1 UQM       0.604100
      6 C8         -10.4560    -8.4860   -37.8230 ca         1 UQM      -0.078000
      7 C          -12.8460    -4.8910   -38.8540 c3         1 UQM      -0.177100
      8 O          -12.6780    -4.5010   -41.2190 o          1 UQM      -0.598100
      9 C1         -12.1970    -5.0450   -40.2330 c          1 UQM       0.611100
     10 C2         -10.3730    -6.6600   -39.4430 ca         1 UQM      -0.034000
     11 C3          -8.9680    -6.7110   -39.4040 ca         1 UQM      -0.127000
     12 C9         -11.1150    -7.5670   -38.6590 ca         1 UQM      -0.127000
     13 O1          -7.1840    -8.1000   -35.2560 o          1 UQM      -0.595100
     14 H9          -8.7630    -8.9270   -33.5540 hn         1 UQM       0.313500
     15 H8          -9.6320    -9.9660   -34.6660 hn         1 UQM       0.313500
     16 H5          -7.2220    -7.6450   -38.5410 ha         1 UQM       0.117500
     17 H7          -8.9550   -10.4130   -36.7550 hc         1 UQM       0.063200
     18 H6          -7.3740    -9.7930   -37.3060 hc         1 UQM       0.063200
     19 H10        -11.0430    -9.1780   -37.2220 ha         1 UQM       0.117500
     20 H3         -10.5280    -5.6340   -41.2100 hn         1 UQM       0.157000
     21 H2         -13.4460    -3.9760   -38.7940 hc         1 UQM       0.064033
     22 H          -13.5060    -5.7480   -38.6850 hc         1 UQM       0.064033
     23 H1         -12.0970    -4.9490   -38.0570 hc         1 UQM       0.064033
     24 H4          -8.3820    -6.0290   -40.0170 ha         1 UQM       0.122000
     25 H11        -12.1990    -7.5880   -38.7060 ha         1 UQM       0.122000
     26 N          -10.9910    -5.7260   -40.3150 ns         1 UQM      -0.175000
@<TRIPOS>BOND
     1     1     5 1   
     2     1    14 1   
     3     1    15 1   
     4     2     3 ar  
     5     2    11 ar  
     6     2    16 1   
     7     3     4 1   
     8     3     6 ar  
     9     4     5 1   
    10     4    17 1   
    11     4    18 1   
    12     5    13 2   
    13     6    12 ar  
    14     6    19 1   
    15     7     9 1   
    16     7    21 1   
    17     7    22 1   
    18     7    23 1   
    19     8     9 2   
    20     9    26 1   
    21    10    11 ar  
    22    10    12 ar  
    23    10    26 1   
    24    11    24 1   
    25    12    25 1   
    26    20    26 1   
@<TRIPOS>SUBSTRUCTURE
     1 UQM         1 TEMP              0 ****  ****    0 ROOT
