@<TRIPOS>MOLECULE
UQM
   26    26     1     0     0
SMALL
bcc


@<TRIPOS>ATOM
      1 N1          -8.4240    -9.5230   -34.3590 nt         1 UQM      -0.679000
      2 C4          -8.4910    -7.5480   -38.4530 ca         1 UQM      -0.096000
      3 C5          -9.2360    -8.4950   -37.7560 ca         1 UQM      -0.079300
      4 C6          -8.5870    -9.4120   -36.7620 c3         1 UQM      -0.114100
      5 C7          -8.3250    -8.7230   -35.4300 c          1 UQM       0.671100
      6 C8         -10.6050    -8.5600   -37.9900 ca         1 UQM      -0.096000
      7 C          -12.5750    -4.8550   -38.8430 c3         1 UQM      -0.177100
      8 O          -12.4550    -4.2300   -41.1470 o          1 UQM      -0.598100
      9 C1         -12.0410    -4.9480   -40.2490 c          1 UQM       0.678100
     10 C2         -10.4720    -6.7450   -39.5630 ca         1 UQM       0.058600
     11 C3          -9.0990    -6.6780   -39.3430 ca         1 UQM      -0.145000
     12 C9         -11.2200    -7.7070   -38.8950 ca         1 UQM      -0.145000
     13 O1          -8.0260    -7.5410   -35.3580 o          1 UQM      -0.595100
     14 H9          -8.2310    -9.1680   -33.4360 hn         1 UQM       0.313500
     15 H8          -8.6870   -10.4890   -34.4390 hn         1 UQM       0.313500
     16 H5          -7.4200    -7.4850   -38.3010 ha         1 UQM       0.135500
     17 H7          -9.1930   -10.3070   -36.6150 hc         1 UQM       0.063200
     18 H6          -7.6170    -9.7530   -37.1380 hc         1 UQM       0.063200
     19 H10        -11.2050    -9.2990   -37.4720 ha         1 UQM       0.135500
     20 H3         -10.6710    -5.8390   -41.4190 hn         1 UQM       0.323500
     21 H2         -13.0800    -3.9000   -38.7180 hc         1 UQM       0.064033
     22 H          -13.3040    -5.6450   -38.6560 hc         1 UQM       0.064033
     23 H1         -11.7940    -4.9490   -38.0900 hc         1 UQM       0.064033
     24 H4          -8.5080    -5.9360   -39.8650 ha         1 UQM       0.140000
     25 H11        -12.2810    -7.8010   -39.0860 ha         1 UQM       0.140000
     26 N          -11.0710    -5.8670   -40.4910 ns         1 UQM      -0.501100
@<TRIPOS>BOND
     1     1     5 1   
     2     1    14 1   
     3     1    15 1   
     4     2     3 ar  
     5     2    11 ar  
     6     2    16 1   
     7     3     4 1   
     8     3     6 ar  
     9     4     5 1   
    10     4    17 1   
    11     4    18 1   
    12     5    13 2   
    13     6    12 ar  
    14     6    19 1   
    15     7     9 1   
    16     7    21 1   
    17     7    22 1   
    18     7    23 1   
    19     8     9 2   
    20     9    26 1   
    21    10    11 ar  
    22    10    12 ar  
    23    10    26 1   
    24    11    24 1   
    25    12    25 1   
    26    20    26 1   
@<TRIPOS>SUBSTRUCTURE
     1 UQM         1 TEMP              0 ****  ****    0 ROOT
