@<TRIPOS>MOLECULE
UQN
   32    34     1     0     0
SMALL
bcc


@<TRIPOS>ATOM
      1 N19         15.3020    21.4190    -2.1530 nc         1 UQN      -0.640000
      2 C17         15.4380    17.7100     0.7730 ca         1 UQN      -0.120000
      3 C16         14.1310    17.7400     1.2390 ca         1 UQN      -0.118000
      4 C15         13.3290    18.8450     0.9970 ca         1 UQN      -0.111000
      5 C12         15.1500    19.9090    -0.2010 ca         1 UQN      -0.098500
      6 C03         18.9740    21.3330     3.0260 ca         1 UQN      -0.040300
      7 C04         17.5930    21.5300     3.0140 ca         1 UQN      -0.121000
      8 C05         16.8740    21.6610     1.8390 ca         1 UQN      -0.103000
      9 C06         19.6060    21.2690     1.7840 ca         1 UQN      -0.015900
     10 C08         18.9100    21.3750     0.5900 ca         1 UQN      -0.104000
     11 C09         17.5380    21.5750     0.6240 ca         1 UQN      -0.009200
     12 C11         15.7180    21.0170    -0.9810 cd         1 UQN       0.456000
     13 C13         13.8430    19.9200     0.2850 ca         1 UQN       0.009100
     14 C18         15.9370    18.7860     0.0590 ca         1 UQN      -0.106000
     15 C20         16.1650    22.4000    -2.5440 cc         1 UQN       0.299200
     16 C21         17.1230    22.5940    -1.5940 cd         1 UQN      -0.246600
     17 N10         16.8300    21.7050    -0.5920 na         1 UQN      -0.120000
     18 BR2         12.7410    21.4320     0.0370 br         1 UQN      -0.078100
     19 H1          16.0660    16.8490     0.9600 ha         1 UQN       0.139000
     20 H2          13.7290    16.9040     1.7960 ha         1 UQN       0.137000
     21 H3          12.3140    18.8670     1.3700 ha         1 UQN       0.149000
     22 H4          20.4610    21.9840     4.4430 hc         1 UQN       0.054367
     23 H5          19.0180    21.2760     5.1620 hc         1 UQN       0.054367
     24 H6          20.2230    20.2440     4.3990 hc         1 UQN       0.054367
     25 H7          17.0700    21.5950     3.9590 ha         1 UQN       0.141000
     26 H8          15.8080    21.8410     1.8730 ha         1 UQN       0.157000
     27 H9          19.4200    21.2950    -0.3610 ha         1 UQN       0.160000
     28 H10         16.9520    18.7580    -0.3160 ha         1 UQN       0.141000
     29 H11         16.0540    22.9170    -3.4840 h4         1 UQN       0.042100
     30 H12         17.9510    23.2790    -1.5250 h4         1 UQN       0.180000
     31 BR1         21.4760    21.0140     1.6880 br         1 UQN      -0.089100
     32 C02         19.7090    21.2030     4.3250 c3         1 UQN      -0.052800
@<TRIPOS>BOND
     1     1    12 2   
     2     1    15 1   
     3     2     3 ar  
     4     2    14 ar  
     5     2    19 1   
     6     3     4 ar  
     7     3    20 1   
     8     4    13 ar  
     9     4    21 1   
    10     5    12 1   
    11     5    13 ar  
    12     5    14 ar  
    13     6     7 ar  
    14     6     9 ar  
    15     6    32 1   
    16     7     8 ar  
    17     7    25 1   
    18     8    11 ar  
    19     8    26 1   
    20     9    10 ar  
    21     9    31 1   
    22    10    11 ar  
    23    10    27 1   
    24    11    17 1   
    25    12    17 1   
    26    13    18 1   
    27    14    28 1   
    28    15    16 2   
    29    15    29 1   
    30    16    17 1   
    31    16    30 1   
    32    22    32 1   
    33    23    32 1   
    34    24    32 1   
@<TRIPOS>SUBSTRUCTURE
     1 UQN         1 TEMP              0 ****  ****    0 ROOT
