@<TRIPOS>MOLECULE
UQN
   32    34     1     0     0
SMALL
No Charge or Current Charge


@<TRIPOS>ATOM
      1 N19         15.0510    21.7630    -1.7250 nc         1 UQN      -0.640000
      2 C17         15.6130    17.5060     0.5350 ca         1 UQN      -0.102000
      3 C16         14.3150    17.4390     1.0600 ca         1 UQN      -0.100000
      4 C15         13.4690    18.5550     0.9720 ca         1 UQN      -0.093000
      5 C12         15.2270    19.8230    -0.1710 ca         1 UQN      -0.098500
      6 C03         18.8880    21.4600     2.9850 ca         1 UQN      -0.040300
      7 C04         17.6880    22.1690     2.7860 ca         1 UQN      -0.103000
      8 C05         17.0720    22.1920     1.5220 ca         1 UQN      -0.085000
      9 C06         19.4690    20.7730     1.8950 ca         1 UQN      -0.015900
     10 C08         18.8530    20.7980     0.6310 ca         1 UQN      -0.086000
     11 C09         17.6520    21.5010     0.4390 ca         1 UQN      -0.009200
     12 C11         15.7450    21.0270    -0.8620 cd         1 UQN       0.456000
     13 C13         13.9120    19.7410     0.3590 ca         1 UQN       0.009100
     14 C18         16.0630    18.6870    -0.0770 ca         1 UQN      -0.088000
     15 C20         15.8800    22.7900    -2.1020 cc         1 UQN       0.233900
     16 C21         17.1040    22.7020    -1.4930 cd         1 UQN      -0.214000
     17 N10         17.0490    21.5000    -0.8200 na         1 UQN      -0.069300
     18 Br2         12.7020    21.2340     0.3650 br         1 UQN      -0.078100
     19 H1          16.2710    16.6420     0.5980 ha         1 UQN       0.121000
     20 H2          13.9650    16.5250     1.5360 ha         1 UQN       0.119000
     21 H3          12.4650    18.5030     1.3890 ha         1 UQN       0.131000
     22 H4          20.5470    21.8750     4.3290 hc         1 UQN       0.054367
     23 H5          18.9610    22.0250     5.0930 hc         1 UQN       0.054367
     24 H6          19.6200    20.4220     4.7500 hc         1 UQN       0.054367
     25 H7          17.2260    22.7050     3.6120 ha         1 UQN       0.123000
     26 H8          16.1450    22.7460     1.3880 ha         1 UQN       0.139000
     27 H9          19.3100    20.2660    -0.2000 ha         1 UQN       0.142000
     28 H10         17.0690    18.7130    -0.4920 ha         1 UQN       0.123000
     29 H11         15.5200    23.5640    -2.7680 h4         1 UQN       0.042100
     30 H12         17.9610    23.3650    -1.5000 h4         1 UQN       0.162000
     31 Br1         21.1040    19.7880     2.0960 br         1 UQN      -0.089100
     32 C02         19.5390    21.4450     4.3630 c3         1 UQN      -0.052800
@<TRIPOS>BOND
     1     1    12 2   
     2     1    15 1   
     3     2     3 ar  
     4     2    14 ar  
     5     2    19 1   
     6     3     4 ar  
     7     3    20 1   
     8     4    13 ar  
     9     4    21 1   
    10     5    12 1   
    11     5    13 ar  
    12     5    14 ar  
    13     6     7 ar  
    14     6     9 ar  
    15     6    32 1   
    16     7     8 ar  
    17     7    25 1   
    18     8    11 ar  
    19     8    26 1   
    20     9    10 ar  
    21     9    31 1   
    22    10    11 ar  
    23    10    27 1   
    24    11    17 1   
    25    12    17 1   
    26    13    18 1   
    27    14    28 1   
    28    15    16 2   
    29    15    29 1   
    30    16    17 1   
    31    16    30 1   
    32    22    32 1   
    33    23    32 1   
    34    24    32 1   
@<TRIPOS>SUBSTRUCTURE
     1 UQN         1 TEMP              0 ****  ****    0 ROOT
