@<TRIPOS>MOLECULE
UQS
   24    25     1     0     0
SMALL
No Charge or Current Charge


@<TRIPOS>ATOM
      1 N1         -37.4110    12.0810   -34.7250 nc         1 UQS      -0.510800
      2 C4         -41.2250    12.1290   -38.7240 ca         1 UQS      -0.073000
      3 C5         -42.1050    11.8630   -37.6540 ca         1 UQS      -0.157300
      4 C6         -41.7010    10.8740   -36.5690 c3         1 UQS       0.233100
      5 C7         -39.4920    11.5420   -35.4880 cd         1 UQS       0.139000
      6 C8         -38.7090    12.2710   -34.5550 cd         1 UQS       0.202900
      7 N          -40.8710    11.5450   -35.5540 nu         1 UQS      -0.872200
      8 C          -43.3520    12.5210   -37.6140 ca         1 UQS       0.174000
      9 C1         -43.7150    13.4280   -38.6230 ca         1 UQS      -0.148000
     10 C2         -42.8330    13.6870   -39.6870 ca         1 UQS      -0.080000
     11 C3         -41.5880    13.0370   -39.7350 ca         1 UQS      -0.126000
     12 C9         -38.6340    10.8530   -36.2910 cc         1 UQS      -0.207000
     13 F          -44.2170    12.2890   -36.6010 f          1 UQS      -0.187000
     14 N2         -37.3730    11.2020   -35.8010 na         1 UQS      -0.001200
     15 H4         -42.5970    10.4470   -36.0980 h1         1 UQS       0.061200
     16 H5         -41.1560    10.0360   -37.0260 h1         1 UQS       0.061200
     17 H7         -39.0520    12.9280   -33.7660 h4         1 UQS       0.037100
     18 H6         -41.3520    12.1540   -34.8900 hn         1 UQS       0.446000
     19 H          -44.6790    13.9280   -38.5800 ha         1 UQS       0.132000
     20 H1         -43.1130    14.3900   -40.4690 ha         1 UQS       0.118000
     21 H2         -40.9030    13.2370   -40.5560 ha         1 UQS       0.118000
     22 H9         -38.7930    10.1800   -37.1230 h4         1 UQS       0.155000
     23 H8         -36.4810    10.8660   -36.1690 hn         1 UQS       0.371000
     24 H3         -40.2580    11.6340   -38.7710 ha         1 UQS       0.113000
@<TRIPOS>BOND
     1     1     6 2   
     2     1    14 1   
     3     2     3 ar  
     4     2    11 ar  
     5     2    24 1   
     6     3     4 1   
     7     3     8 ar  
     8     4     7 1   
     9     4    15 1   
    10     4    16 1   
    11     5     6 1   
    12     5     7 1   
    13     5    12 2   
    14     6    17 1   
    15     7    18 1   
    16     8     9 ar  
    17     8    13 1   
    18     9    10 ar  
    19     9    19 1   
    20    10    11 ar  
    21    10    20 1   
    22    11    21 1   
    23    12    14 1   
    24    12    22 1   
    25    14    23 1   
@<TRIPOS>SUBSTRUCTURE
     1 UQS         1 TEMP              0 ****  ****    0 ROOT
