@<TRIPOS>MOLECULE
UQS
   24    25     1     0     0
SMALL
abcg2


@<TRIPOS>ATOM
      1 N1         -38.0970    12.8540   -35.3030 nc         1 UQS      -0.510800
      2 C4         -41.3220    11.6530   -38.8220 ca         1 UQS      -0.073000
      3 C5         -41.9870    11.6060   -37.6010 ca         1 UQS      -0.157300
      4 C6         -41.7890    10.4650   -36.6340 c3         1 UQS       0.233100
      5 C7         -39.8250    11.4250   -35.5760 cd         1 UQS       0.139000
      6 C8         -39.3440    12.5880   -34.9440 cd         1 UQS       0.202900
      7 N          -41.0700    10.8140   -35.4180 nu         1 UQS      -0.872200
      8 C          -42.7990    12.6880   -37.2910 ca         1 UQS       0.174000
      9 C1         -42.9630    13.7760   -38.1230 ca         1 UQS      -0.148000
     10 C2         -42.2810    13.7940   -39.3340 ca         1 UQS      -0.080000
     11 C3         -41.4630    12.7310   -39.6860 ca         1 UQS      -0.126000
     12 C9         -38.7710    11.0110   -36.3660 cc         1 UQS      -0.207000
     13 F          -43.4640    12.6730   -36.1190 f          1 UQS      -0.187000
     14 N2         -37.7800    11.9040   -36.1630 na         1 UQS      -0.001200
     15 H4         -42.7470    10.0370   -36.3360 h1         1 UQS       0.061200
     16 H5         -41.2500     9.6640   -37.1450 h1         1 UQS       0.061200
     17 H7         -39.8620    13.2220   -34.2390 h4         1 UQS       0.037100
     18 H6         -41.6520    11.3320   -34.7770 hn         1 UQS       0.446000
     19 H          -43.6090    14.5930   -37.8310 ha         1 UQS       0.132000
     20 H1         -42.3930    14.6420   -39.9960 ha         1 UQS       0.118000
     21 H2         -40.9280    12.7440   -40.6260 ha         1 UQS       0.118000
     22 H9         -38.6620    10.1790   -37.0420 h4         1 UQS       0.155000
     23 H8         -36.8720    11.9030   -36.5980 hn         1 UQS       0.371000
     24 H3         -40.6810    10.8240   -39.0990 ha         1 UQS       0.113000
@<TRIPOS>BOND
     1     1     6 2   
     2     1    14 1   
     3     2     3 ar  
     4     2    11 ar  
     5     2    24 1   
     6     3     4 1   
     7     3     8 ar  
     8     4     7 1   
     9     4    15 1   
    10     4    16 1   
    11     5     6 1   
    12     5     7 1   
    13     5    12 2   
    14     6    17 1   
    15     7    18 1   
    16     8     9 ar  
    17     8    13 1   
    18     9    10 ar  
    19     9    19 1   
    20    10    11 ar  
    21    10    20 1   
    22    11    21 1   
    23    12    14 1   
    24    12    22 1   
    25    14    23 1   
@<TRIPOS>SUBSTRUCTURE
     1 UQS         1 TEMP              0 ****  ****    0 ROOT
