@<TRIPOS>MOLECULE
UQV
   24    24     1     0     0
SMALL
No Charge or Current Charge


@<TRIPOS>ATOM
      1 C4          -9.7070    24.2120   -21.1840 ca         1 UQV      -0.126000
      2 C5         -10.3160    23.3190   -22.0750 ca         1 UQV      -0.141000
      3 C6         -11.3680    22.5000   -21.6370 ca         1 UQV      -0.109000
      4 C7         -11.8310    22.5730   -20.3070 ca         1 UQV      -0.041300
      5 C8         -12.9840    21.6620   -19.8650 c3         1 UQV      -0.185100
      6 C          -11.7150    26.0240   -17.6790 c3         1 UQV      -0.181100
      7 O          -11.8840    24.3580   -15.9540 o          1 UQV      -0.630100
      8 C1         -11.7300    24.5850   -17.1480 c          1 UQV       0.605100
      9 C2         -11.2310    23.4950   -19.4120 ca         1 UQV      -0.017000
     10 C3         -10.1570    24.2950   -19.8570 ca         1 UQV      -0.152000
     11 C9         -12.4490    20.5130   -18.9950 c          1 UQV       0.727000
     12 O1         -12.0490    19.5040   -19.5560 o          1 UQV      -0.714000
     13 O2         -12.3320    20.7130   -17.7950 o          1 UQV      -0.714000
     14 H5          -8.8800    24.8350   -21.5180 ha         1 UQV       0.091000
     15 H6          -9.9660    23.2520   -23.1030 ha         1 UQV       0.093000
     16 H7         -11.8230    21.8020   -22.3370 ha         1 UQV       0.108000
     17 H9         -13.6840    22.2780   -19.2880 hc         1 UQV       0.038200
     18 H8         -13.4440    21.2490   -20.7710 hc         1 UQV       0.038200
     19 H3         -11.8920    22.6420   -17.6680 hn         1 UQV       0.239000
     20 H1         -12.2590    26.7050   -17.0140 hc         1 UQV       0.047700
     21 H          -10.6750    26.3620   -17.7390 hc         1 UQV       0.047700
     22 H2         -12.0870    26.0700   -18.7100 hc         1 UQV       0.047700
     23 H4          -9.6450    24.9690   -19.1760 ha         1 UQV       0.101000
     24 N          -11.6780    23.5510   -18.0640 ns         1 UQV      -0.172000
@<TRIPOS>BOND
     1     1     2 ar  
     2     1    10 ar  
     3     1    14 1   
     4     2     3 ar  
     5     2    15 1   
     6     3     4 ar  
     7     3    16 1   
     8     4     5 1   
     9     4     9 ar  
    10     5    11 1   
    11     5    17 1   
    12     5    18 1   
    13     6     8 1   
    14     6    20 1   
    15     6    21 1   
    16     6    22 1   
    17     7     8 2   
    18     8    24 1   
    19     9    10 ar  
    20     9    24 1   
    21    10    23 1   
    22    11    12 1   
    23    11    13 1   
    24    19    24 1   
@<TRIPOS>SUBSTRUCTURE
     1 UQV         1 TEMP              0 ****  ****    0 ROOT
