@<TRIPOS>MOLECULE
UQV
   24    24     1     0     0
SMALL
bcc


@<TRIPOS>ATOM
      1 C4          -9.6870    24.2680   -21.1650 ca         1 UQV      -0.144000
      2 C5         -10.3020    23.3930   -22.0480 ca         1 UQV      -0.159000
      3 C6         -11.3240    22.5710   -21.5930 ca         1 UQV      -0.127000
      4 C7         -11.7630    22.6080   -20.2730 ca         1 UQV      -0.041300
      5 C8         -12.8990    21.7260   -19.8330 c3         1 UQV      -0.185100
      6 C          -11.7810    25.9160   -17.7900 c3         1 UQV      -0.181100
      7 O          -12.0880    24.3210   -16.0460 o          1 UQV      -0.630100
      8 C1         -11.8070    24.5170   -17.2210 c          1 UQV       0.672100
      9 C2         -11.1290    23.4950   -19.3890 ca         1 UQV       0.075600
     10 C3         -10.0890    24.3040   -19.8380 ca         1 UQV      -0.170000
     11 C9         -12.4750    20.5210   -18.9560 c          1 UQV       0.937600
     12 O1         -12.8410    19.3960   -19.3160 o          1 UQV      -0.819300
     13 O2         -11.8030    20.7910   -17.9270 o          1 UQV      -0.819300
     14 H5          -8.8810    24.9090   -21.4990 ha         1 UQV       0.109000
     15 H6          -9.9900    23.3480   -23.0830 ha         1 UQV       0.111000
     16 H7         -11.8090    21.8910   -22.2850 ha         1 UQV       0.126000
     17 H9         -13.6140    22.3220   -19.2540 hc         1 UQV       0.038200
     18 H8         -13.4310    21.3660   -20.7130 hc         1 UQV       0.038200
     19 H3         -11.6720    22.5170   -17.6940 hn         1 UQV       0.405500
     20 H1         -12.4750    26.5350   -17.2250 hc         1 UQV       0.047700
     21 H          -10.7870    26.3520   -17.6750 hc         1 UQV       0.047700
     22 H2         -12.0410    25.9620   -18.8450 hc         1 UQV       0.047700
     23 H4          -9.5760    24.9560   -19.1430 ha         1 UQV       0.119000
     24 N          -11.5230    23.4800   -18.0420 ns         1 UQV      -0.498100
@<TRIPOS>BOND
     1     1     2 ar  
     2     1    10 ar  
     3     1    14 1   
     4     2     3 ar  
     5     2    15 1   
     6     3     4 ar  
     7     3    16 1   
     8     4     5 1   
     9     4     9 ar  
    10     5    11 1   
    11     5    17 1   
    12     5    18 1   
    13     6     8 1   
    14     6    20 1   
    15     6    21 1   
    16     6    22 1   
    17     7     8 2   
    18     8    24 1   
    19     9    10 ar  
    20     9    24 1   
    21    10    23 1   
    22    11    12 1   
    23    11    13 1   
    24    19    24 1   
@<TRIPOS>SUBSTRUCTURE
     1 UQV         1 TEMP              0 ****  ****    0 ROOT
