@<TRIPOS>MOLECULE
UQW
   42    43     1     0     0
SMALL
bcc


@<TRIPOS>ATOM
      1 C12         24.3580     2.6550   -30.7750 ca         1 UQW      -0.047200
      2 C13         23.7130     3.2780   -29.6840 ca         1 UQW      -0.098800
      3 C14         24.2960     4.4100   -29.1020 ca         1 UQW      -0.076000
      4 C17         25.5620     3.1310   -31.2930 ca         1 UQW      -0.151000
      5 C1          19.6800     2.1750   -23.5240 c2         1 UQW      -0.113000
      6 C2          19.6080     3.2410   -24.3160 ce         1 UQW      -0.290200
      7 O1          18.2270     4.8790   -25.4740 os         1 UQW      -0.436900
      8 C4          19.3340     5.7700   -25.5920 c3         1 UQW       0.081100
      9 C5          18.7800     7.1660   -25.8590 c3         1 UQW      -0.068400
     10 C6          17.9820     7.3120   -27.1480 c3         1 UQW      -0.091100
     11 C7          20.3100     5.3560   -26.6900 c          1 UQW       0.640100
     12 N1          19.8470     4.5340   -27.6390 ns         1 UQW      -0.562900
     13 C8          20.6770     4.0720   -28.7310 c3         1 UQW       0.099000
     14 C10         22.5210     2.5290   -29.4120 cc         1 UQW      -0.143400
     15 C11         22.4950     1.5160   -30.3280 cd         1 UQW      -0.107100
     16 N2          23.5910     1.5890   -31.1440 na         1 UQW      -0.175400
     17 C15         25.4890     4.8840   -29.6110 ca         1 UQW      -0.160000
     18 C16         26.1160     4.2480   -30.6970 ca         1 UQW      -0.108000
     19 O2          21.4440     5.8120   -26.6730 o          1 UQW      -0.606100
     20 O3          17.2730     3.0930   -24.6760 o          1 UQW      -0.485000
     21 H1          23.8170     4.9100   -28.2680 ha         1 UQW       0.148000
     22 H2          26.0470     2.6440   -32.1290 ha         1 UQW       0.129000
     23 H3          18.8020     1.6240   -23.2140 ha         1 UQW       0.128500
     24 H4          20.6340     1.8250   -23.1570 ha         1 UQW       0.128500
     25 H6          20.5190     3.7590   -24.5830 ha         1 UQW       0.145000
     26 H8          19.8950     5.8060   -24.6550 h1         1 UQW       0.073700
     27 H9          19.6300     7.8510   -25.8650 hc         1 UQW       0.061200
     28 H10         18.1660     7.4490   -25.0010 hc         1 UQW       0.061200
     29 H11         17.5990     8.3290   -27.2310 hc         1 UQW       0.041033
     30 H12         18.5910     7.1220   -28.0320 hc         1 UQW       0.041033
     31 H13         17.1250     6.6390   -27.1770 hc         1 UQW       0.041033
     32 H14         18.8900     4.2230   -27.6100 hn         1 UQW       0.330500
     33 H15         21.3250     4.8880   -29.0510 h1         1 UQW       0.059200
     34 H16         20.0230     3.8360   -29.5700 h1         1 UQW       0.059200
     35 H17         20.8510     1.9920   -28.1950 hc         1 UQW       0.049700
     36 H18         22.0180     3.0370   -27.4080 hc         1 UQW       0.049700
     37 H19         21.7650     0.7320   -30.4610 h4         1 UQW       0.160000
     38 H20         23.8000     0.9480   -31.8900 hn         1 UQW       0.298700
     39 H21         25.9510     5.7580   -29.1720 ha         1 UQW       0.130000
     40 H22         27.0500     4.6430   -31.0750 ha         1 UQW       0.127000
     41 C9          21.5140     2.8440   -28.3600 c3         1 UQW      -0.018200
     42 C3          18.2950     3.7120   -24.8170 c          1 UQW       0.654300
@<TRIPOS>BOND
     1     1     2 ar  
     2     1     4 ar  
     3     1    16 1   
     4     2     3 ar  
     5     2    14 1   
     6     3    17 ar  
     7     3    21 1   
     8     4    18 ar  
     9     4    22 1   
    10     5     6 2   
    11     5    23 1   
    12     5    24 1   
    13     6    25 1   
    14     6    42 1   
    15     7     8 1   
    16     7    42 1   
    17     8     9 1   
    18     8    11 1   
    19     8    26 1   
    20     9    10 1   
    21     9    27 1   
    22     9    28 1   
    23    10    29 1   
    24    10    30 1   
    25    10    31 1   
    26    11    12 1   
    27    11    19 2   
    28    12    13 1   
    29    12    32 1   
    30    13    33 1   
    31    13    34 1   
    32    13    41 1   
    33    14    15 2   
    34    14    41 1   
    35    15    16 1   
    36    15    37 1   
    37    16    38 1   
    38    17    18 ar  
    39    17    39 1   
    40    18    40 1   
    41    20    42 2   
    42    35    41 1   
    43    36    41 1   
@<TRIPOS>SUBSTRUCTURE
     1 UQW         1 TEMP              0 ****  ****    0 ROOT
