@<TRIPOS>MOLECULE
UQW
   42    43     1     0     0
SMALL
No Charge or Current Charge


@<TRIPOS>ATOM
      1 C12         24.3460     2.4530   -30.6350 ca         1 UQW      -0.047200
      2 C13         23.7880     3.2450   -29.6710 ca         1 UQW      -0.098800
      3 C14         24.3510     4.4770   -29.3060 ca         1 UQW      -0.058000
      4 C17         25.5120     2.8380   -31.3130 ca         1 UQW      -0.133000
      5 C1          19.8390     1.8740   -24.1930 c2         1 UQW      -0.213000
      6 C2          19.5670     3.1560   -24.5460 ce         1 UQW      -0.340200
      7 O1          18.0980     4.9140   -25.4800 os         1 UQW      -0.460100
      8 C4          19.1890     5.8790   -25.4600 c3         1 UQW       0.104300
      9 C5          18.5600     7.2810   -25.6740 c3         1 UQW      -0.068400
     10 C6          17.8490     7.4790   -27.0340 c3         1 UQW      -0.091100
     11 C7          20.2940     5.5750   -26.5170 c          1 UQW       0.573100
     12 N1          19.9130     4.7560   -27.5610 ns         1 UQW      -0.495900
     13 C8          20.8090     4.2560   -28.6070 c3         1 UQW       0.099000
     14 C10         22.6190     2.5740   -29.1770 cc         1 UQW      -0.143400
     15 C11         22.5350     1.3790   -29.8860 cd         1 UQW      -0.157100
     16 N2          23.6120     1.2940   -30.8030 na         1 UQW      -0.225700
     17 C15         25.5240     4.8900   -29.9720 ca         1 UQW      -0.142000
     18 C16         26.1030     4.0740   -30.9730 ca         1 UQW      -0.090000
     19 O2          21.4370     6.0030   -26.4180 o          1 UQW      -0.606100
     20 O3          17.3160     2.8050   -25.2510 o          1 UQW      -0.436000
     21 H1          23.9000     5.0940   -28.5320 ha         1 UQW       0.130000
     22 H2          25.9500     2.2030   -32.0790 ha         1 UQW       0.111000
     23 H3          19.1070     1.0710   -24.3020 ha         1 UQW       0.178500
     24 H4          20.8080     1.5850   -23.7810 ha         1 UQW       0.178500
     25 H6          20.3470     3.8960   -24.4030 ha         1 UQW       0.195000
     26 H8          19.6680     5.8990   -24.4740 h1         1 UQW       0.073700
     27 H9          19.3450     8.0400   -25.5730 hc         1 UQW       0.061200
     28 H10         17.8410     7.4710   -24.8670 hc         1 UQW       0.061200
     29 H11         17.4120     8.4830   -27.0900 hc         1 UQW       0.041033
     30 H12         18.5530     7.3700   -27.8670 hc         1 UQW       0.041033
     31 H13         17.0400     6.7500   -27.1640 hc         1 UQW       0.041033
     32 H14         18.9430     4.4580   -27.5650 hn         1 UQW       0.330500
     33 H15         21.4540     5.0770   -28.9470 h1         1 UQW       0.059200
     34 H16         20.2030     3.9290   -29.4620 h1         1 UQW       0.059200
     35 H17         21.0190     2.2650   -27.7850 hc         1 UQW       0.049700
     36 H18         22.2520     3.3920   -27.2380 hc         1 UQW       0.049700
     37 H19         21.7900     0.5920   -29.8080 h4         1 UQW       0.210000
     38 H20         23.8050     0.5370   -31.4520 hn         1 UQW       0.349000
     39 H21         25.9870     5.8400   -29.7130 ha         1 UQW       0.112000
     40 H22         27.0080     4.3990   -31.4810 ha         1 UQW       0.109000
     41 C9          21.6760     3.0780   -28.1170 c3         1 UQW      -0.018200
     42 C3          18.2400     3.5890   -25.1130 c          1 UQW       0.605300
@<TRIPOS>BOND
     1     1     2 ar  
     2     1     4 ar  
     3     1    16 1   
     4     2     3 ar  
     5     2    14 1   
     6     3    17 ar  
     7     3    21 1   
     8     4    18 ar  
     9     4    22 1   
    10     5     6 2   
    11     5    23 1   
    12     5    24 1   
    13     6    25 1   
    14     6    42 1   
    15     7     8 1   
    16     7    42 1   
    17     8     9 1   
    18     8    11 1   
    19     8    26 1   
    20     9    10 1   
    21     9    27 1   
    22     9    28 1   
    23    10    29 1   
    24    10    30 1   
    25    10    31 1   
    26    11    12 1   
    27    11    19 2   
    28    12    13 1   
    29    12    32 1   
    30    13    33 1   
    31    13    34 1   
    32    13    41 1   
    33    14    15 2   
    34    14    41 1   
    35    15    16 1   
    36    15    37 1   
    37    16    38 1   
    38    17    18 ar  
    39    17    39 1   
    40    18    40 1   
    41    20    42 2   
    42    35    41 1   
    43    36    41 1   
@<TRIPOS>SUBSTRUCTURE
     1 UQW         1 TEMP              0 ****  ****    0 ROOT
