@<TRIPOS>MOLECULE
UQX
   70    75     1     0     0
SMALL
No Charge or Current Charge


@<TRIPOS>ATOM
      1 C4          -3.0820     6.0490   -18.9480 c6         1 UQX      -0.005200
      2 C14         -4.2790    10.6110   -23.6350 c3         1 UQX      -0.051800
      3 C5          -2.1180     7.1440   -18.5800 cc         1 UQX      -0.102400
      4 C6          -2.4510     8.4890   -18.6930 cd         1 UQX      -0.097300
      5 C11         -6.1990    10.7350   -20.3130 ca         1 UQX      -0.086300
      6 C7          -3.7910     8.9870   -19.2070 c6         1 UQX       0.171200
      7 C8          -6.0350     7.8310   -18.7350 c          1 UQX       0.608100
      8 C9          -6.7620     9.1650   -18.3420 c3         1 UQX       0.051700
      9 C10         -7.2770     9.9450   -19.5850 c3         1 UQX      -0.044100
     10 C12         -5.7720    10.3440   -21.5970 ca         1 UQX      -0.105000
     11 C13         -4.7570    11.0580   -22.2620 ca         1 UQX      -0.077300
     12 N1          -2.3500     6.4360   -21.7030 ns         1 UQX      -0.506900
     13 N2          -4.7630     7.8580   -19.3620 n          1 UQX      -0.394800
     14 C3          -4.1430     6.6140   -19.9380 c6         1 UQX       0.016700
     15 N3          -7.8850     8.8650   -17.4240 ns         1 UQX      -0.500900
     16 C1          -1.7380     6.5630   -23.0260 c3         1 UQX       0.094300
     17 C15         -4.1730    12.1760   -21.6390 ca         1 UQX      -0.112000
     18 C16         -4.6050    12.5800   -20.3640 ca         1 UQX      -0.106000
     19 C17         -5.6170    11.8630   -19.7040 ca         1 UQX      -0.116000
     20 C18         -8.4700     9.7630   -16.5590 c          1 UQX       0.619700
     21 C19         -9.6100     9.2440   -15.7140 ca         1 UQX      -0.193600
     22 C2          -3.6440     6.8120   -21.4040 c          1 UQX       0.591100
     23 C20        -10.2420    10.1310   -14.8030 ca         1 UQX       0.033000
     24 C21        -11.2970     9.6360   -14.0260 ca         1 UQX      -0.247900
     25 C22        -11.7250     8.3530   -14.1190 ca         1 UQX      -0.022200
     26 C23        -12.1320    10.2590   -13.0300 cc         1 UQX       0.366800
     27 C24        -11.1400     7.4390   -14.9980 ca         1 UQX      -0.139000
     28 C25        -10.0710     7.8940   -15.8020 ca         1 UQX      -0.050000
     29 C26         -0.3720     8.3950   -17.8850 ca         1 UQX      -0.036200
     30 C27         -0.7870     7.1030   -18.0540 ca         1 UQX      -0.079800
     31 C28          0.0300     6.0100   -17.7360 ca         1 UQX      -0.052000
     32 C29          1.3190     6.2790   -17.2280 ca         1 UQX      -0.145000
     33 C30          1.7540     7.6140   -17.0520 ca         1 UQX      -0.090000
     34 C31          0.9030     8.6910   -17.3830 ca         1 UQX      -0.134000
     35 N4         -12.7640     8.2070   -13.2250 na         1 UQX      -0.060400
     36 N5         -13.0340     9.3960   -12.5310 nd         1 UQX      -0.514100
     37 N6          -1.3610     9.2840   -18.2680 na         1 UQX      -0.219700
     38 O1          -4.3830     7.2580   -22.2720 o          1 UQX      -0.596100
     39 O2          -6.5970     6.7540   -18.5530 o          1 UQX      -0.595100
     40 O3          -8.0790    10.9190   -16.4830 o          1 UQX      -0.602100
     41 H7          -3.5950     5.6960   -18.0420 hc         1 UQX       0.073700
     42 H6          -2.5740     5.1670   -19.3620 hc         1 UQX       0.073700
     43 H15         -3.9670    11.4650   -24.2480 hc         1 UQX       0.047367
     44 H16         -3.4240     9.9300   -23.5470 hc         1 UQX       0.047367
     45 H14         -5.0700    10.0840   -24.1830 hc         1 UQX       0.047367
     46 H8          -4.1670     9.7510   -18.5190 h1         1 UQX       0.057200
     47 H9          -3.6430     9.4690   -20.1830 h1         1 UQX       0.057200
     48 H10         -6.0580     9.7920   -17.7840 h1         1 UQX       0.063700
     49 H11         -7.7800     9.2460   -20.2640 hc         1 UQX       0.064200
     50 H12         -8.0520    10.6520   -19.2660 hc         1 UQX       0.064200
     51 H13         -6.2150     9.4710   -22.0730 ha         1 UQX       0.124000
     52 H4          -1.7750     6.1100   -20.9340 hn         1 UQX       0.327500
     53 H5          -4.9140     5.8400   -20.0500 h1         1 UQX       0.103700
     54 H20         -8.2430     7.9170   -17.4140 hn         1 UQX       0.325500
     55 H1          -1.7520     7.6150   -23.3390 h1         1 UQX       0.037700
     56 H3          -0.7000     6.2110   -22.9850 h1         1 UQX       0.037700
     57 H2          -2.2980     5.9580   -23.7510 h1         1 UQX       0.037700
     58 H17         -3.3850    12.7320   -22.1410 ha         1 UQX       0.115000
     59 H18         -4.1540    13.4470   -19.8870 ha         1 UQX       0.116000
     60 H19         -5.9430    12.1800   -18.7160 ha         1 UQX       0.112000
     61 H21         -9.9240    11.1680   -14.7030 ha         1 UQX       0.142000
     62 H23        -12.1380    11.2690   -12.6440 h4         1 UQX       0.055800
     63 H24        -11.4930     6.4130   -15.0620 ha         1 UQX       0.124000
     64 H25         -9.6140     7.1850   -16.4870 ha         1 UQX       0.115000
     65 H27         -0.3160     4.9890   -17.8760 ha         1 UQX       0.116000
     66 H28          1.9820     5.4550   -16.9710 ha         1 UQX       0.109000
     67 H29          2.7500     7.8130   -16.6600 ha         1 UQX       0.107000
     68 H30          1.2280     9.7200   -17.2500 ha         1 UQX       0.109000
     69 H22        -13.2990     7.3550   -13.0580 hn         1 UQX       0.378000
     70 H26         -1.3150    10.2970   -18.2440 hn         1 UQX       0.346000
@<TRIPOS>BOND
     1     1     3 1   
     2     1    14 1   
     3     1    41 1   
     4     1    42 1   
     5     2    11 1   
     6     2    43 1   
     7     2    44 1   
     8     2    45 1   
     9     3     4 2   
    10     3    30 1   
    11     4     6 1   
    12     4    37 1   
    13     5     9 1   
    14     5    10 ar  
    15     5    19 ar  
    16     6    13 1   
    17     6    46 1   
    18     6    47 1   
    19     7     8 1   
    20     7    13 1   
    21     7    39 2   
    22     8     9 1   
    23     8    15 1   
    24     8    48 1   
    25     9    49 1   
    26     9    50 1   
    27    10    11 ar  
    28    10    51 1   
    29    11    17 ar  
    30    12    16 1   
    31    12    22 1   
    32    12    52 1   
    33    13    14 1   
    34    14    22 1   
    35    14    53 1   
    36    15    20 1   
    37    15    54 1   
    38    16    55 1   
    39    16    56 1   
    40    16    57 1   
    41    17    18 ar  
    42    17    58 1   
    43    18    19 ar  
    44    18    59 1   
    45    19    60 1   
    46    20    21 1   
    47    20    40 2   
    48    21    23 ar  
    49    21    28 ar  
    50    22    38 2   
    51    23    24 ar  
    52    23    61 1   
    53    24    25 ar  
    54    24    26 1   
    55    25    27 ar  
    56    25    35 1   
    57    26    36 2   
    58    26    62 1   
    59    27    28 ar  
    60    27    63 1   
    61    28    64 1   
    62    29    30 ar  
    63    29    34 ar  
    64    29    37 1   
    65    30    31 ar  
    66    31    32 ar  
    67    31    65 1   
    68    32    33 ar  
    69    32    66 1   
    70    33    34 ar  
    71    33    67 1   
    72    34    68 1   
    73    35    36 1   
    74    35    69 1   
    75    37    70 1   
@<TRIPOS>SUBSTRUCTURE
     1 UQX         1 TEMP              0 ****  ****    0 ROOT
