@<TRIPOS>MOLECULE
UQX
   70    75     1     0     0
SMALL
abcg2


@<TRIPOS>ATOM
      1 C4          -3.7690     6.2440   -18.7230 c6         1 UQX      -0.005200
      2 C14         -5.1130     9.6850   -24.6680 c3         1 UQX      -0.051800
      3 C5          -2.8380     7.0530   -17.8900 cc         1 UQX      -0.102400
      4 C6          -2.8170     8.4120   -17.9640 cd         1 UQX      -0.097300
      5 C11         -6.2180    10.9380   -21.2520 ca         1 UQX      -0.086300
      6 C7          -3.7240     9.2530   -18.7920 c6         1 UQX       0.171200
      7 C8          -6.0390     8.5720   -19.4260 c          1 UQX       0.608100
      8 C9          -6.6230     9.9200   -18.9860 c3         1 UQX       0.051700
      9 C10         -7.2470    10.6020   -20.2090 c3         1 UQX      -0.044100
     10 C12         -6.1360    10.2080   -22.4320 ca         1 UQX      -0.105000
     11 C13         -5.1810    10.4980   -23.4090 ca         1 UQX      -0.077300
     12 N1          -3.1150     8.2930   -21.7470 ns         1 UQX      -0.506900
     13 N2          -4.6920     8.3950   -19.4680 n          1 UQX      -0.394800
     14 C3          -4.1920     7.0950   -19.9180 c6         1 UQX       0.016700
     15 N3          -7.6500     9.6860   -17.9980 ns         1 UQX      -0.500900
     16 C1          -2.1640     8.4950   -22.8150 c3         1 UQX       0.094300
     17 C15         -4.2940    11.5440   -23.1740 ca         1 UQX      -0.112000
     18 C16         -4.3590    12.2770   -21.9950 ca         1 UQX      -0.106000
     19 C17         -5.3150    11.9780   -21.0380 ca         1 UQX      -0.116000
     20 C18         -7.3750     9.0370   -16.8530 c          1 UQX       0.619700
     21 C19         -8.5120     8.8110   -15.9170 ca         1 UQX      -0.193600
     22 C2          -3.0600     7.2270   -20.9420 c          1 UQX       0.591100
     23 C20         -8.2200     8.6560   -14.5750 ca         1 UQX       0.033000
     24 C21         -9.2710     8.4350   -13.6830 ca         1 UQX      -0.247900
     25 C22        -10.5920     8.3530   -14.1580 ca         1 UQX      -0.022200
     26 C23         -9.3930     8.2400   -12.2800 cc         1 UQX       0.366800
     27 C24        -10.9000     8.4860   -15.5160 ca         1 UQX      -0.139000
     28 C25         -9.8510     8.7170   -16.3720 ca         1 UQX      -0.050000
     29 C26         -1.2140     7.8760   -16.5170 ca         1 UQX      -0.036200
     30 C27         -1.8160     6.6770   -16.9640 ca         1 UQX      -0.079800
     31 C28         -1.3420     5.4550   -16.4770 ca         1 UQX      -0.052000
     32 C29         -0.3010     5.4550   -15.5670 ca         1 UQX      -0.145000
     33 C30          0.2790     6.6570   -15.1330 ca         1 UQX      -0.090000
     34 C31         -0.1660     7.8800   -15.6000 ca         1 UQX      -0.134000
     35 N4         -11.3610     8.1270   -13.0720 na         1 UQX      -0.060400
     36 N5         -10.6440     8.0590   -11.9460 nd         1 UQX      -0.514100
     37 N6          -1.8440     8.9150   -17.1450 na         1 UQX      -0.219700
     38 O1          -2.1990     6.3660   -21.0450 o          1 UQX      -0.596100
     39 O2          -6.8180     7.7140   -19.8050 o          1 UQX      -0.595100
     40 O3          -6.2410     8.6540   -16.5930 o          1 UQX      -0.602100
     41 H7          -4.6630     5.9500   -18.1660 hc         1 UQX       0.073700
     42 H6          -3.3020     5.3220   -19.0680 hc         1 UQX       0.073700
     43 H15         -6.0520     9.7310   -25.2220 hc         1 UQX       0.047367
     44 H16         -4.3190    10.0350   -25.3260 hc         1 UQX       0.047367
     45 H14         -4.9240     8.6330   -24.4480 hc         1 UQX       0.047367
     46 H8          -4.2340     9.9570   -18.1410 h1         1 UQX       0.057200
     47 H9          -3.1580     9.8490   -19.5150 h1         1 UQX       0.057200
     48 H10         -5.8730    10.5970   -18.5760 h1         1 UQX       0.063700
     49 H11         -8.0220     9.9570   -20.6270 hc         1 UQX       0.064200
     50 H12         -7.7390    11.5170   -19.8670 hc         1 UQX       0.064200
     51 H13         -6.8360     9.3950   -22.6000 ha         1 UQX       0.124000
     52 H4          -3.8810     8.9440   -21.6560 hn         1 UQX       0.327500
     53 H5          -5.0120     6.6010   -20.4410 h1         1 UQX       0.103700
     54 H20         -8.5600    10.0880   -18.1520 hn         1 UQX       0.325500
     55 H1          -2.3520     9.4650   -23.2650 h1         1 UQX       0.037700
     56 H3          -1.1420     8.4850   -22.4390 h1         1 UQX       0.037700
     57 H2          -2.2530     7.7320   -23.5900 h1         1 UQX       0.037700
     58 H17         -3.5470    11.7880   -23.9200 ha         1 UQX       0.115000
     59 H18         -3.6630    13.0890   -21.8270 ha         1 UQX       0.116000
     60 H19         -5.3680    12.5600   -20.1250 ha         1 UQX       0.112000
     61 H21         -7.1990     8.7120   -14.2220 ha         1 UQX       0.142000
     62 H23         -8.6140     8.2270   -11.5330 h4         1 UQX       0.055800
     63 H24        -11.9130     8.4000   -15.8830 ha         1 UQX       0.124000
     64 H25        -10.0680     8.7940   -17.4300 ha         1 UQX       0.115000
     65 H27         -1.7830     4.5220   -16.8060 ha         1 UQX       0.116000
     66 H28          0.0750     4.5160   -15.1830 ha         1 UQX       0.109000
     67 H29          1.0920     6.6260   -14.4190 ha         1 UQX       0.107000
     68 H30          0.2850     8.8060   -15.2650 ha         1 UQX       0.109000
     69 H22        -12.3610     8.0120   -13.0360 hn         1 UQX       0.378000
     70 H26         -1.6330     9.8910   -17.0130 hn         1 UQX       0.346000
@<TRIPOS>BOND
     1     1     3 1   
     2     1    14 1   
     3     1    41 1   
     4     1    42 1   
     5     2    11 1   
     6     2    43 1   
     7     2    44 1   
     8     2    45 1   
     9     3     4 2   
    10     3    30 1   
    11     4     6 1   
    12     4    37 1   
    13     5     9 1   
    14     5    10 ar  
    15     5    19 ar  
    16     6    13 1   
    17     6    46 1   
    18     6    47 1   
    19     7     8 1   
    20     7    13 1   
    21     7    39 2   
    22     8     9 1   
    23     8    15 1   
    24     8    48 1   
    25     9    49 1   
    26     9    50 1   
    27    10    11 ar  
    28    10    51 1   
    29    11    17 ar  
    30    12    16 1   
    31    12    22 1   
    32    12    52 1   
    33    13    14 1   
    34    14    22 1   
    35    14    53 1   
    36    15    20 1   
    37    15    54 1   
    38    16    55 1   
    39    16    56 1   
    40    16    57 1   
    41    17    18 ar  
    42    17    58 1   
    43    18    19 ar  
    44    18    59 1   
    45    19    60 1   
    46    20    21 1   
    47    20    40 2   
    48    21    23 ar  
    49    21    28 ar  
    50    22    38 2   
    51    23    24 ar  
    52    23    61 1   
    53    24    25 ar  
    54    24    26 1   
    55    25    27 ar  
    56    25    35 1   
    57    26    36 2   
    58    26    62 1   
    59    27    28 ar  
    60    27    63 1   
    61    28    64 1   
    62    29    30 ar  
    63    29    34 ar  
    64    29    37 1   
    65    30    31 ar  
    66    31    32 ar  
    67    31    65 1   
    68    32    33 ar  
    69    32    66 1   
    70    33    34 ar  
    71    33    67 1   
    72    34    68 1   
    73    35    36 1   
    74    35    69 1   
    75    37    70 1   
@<TRIPOS>SUBSTRUCTURE
     1 UQX         1 TEMP              0 ****  ****    0 ROOT
