@<TRIPOS>MOLECULE
UQY
   24    24     1     0     0
SMALL
No Charge or Current Charge


@<TRIPOS>ATOM
      1 N1          -1.0670    -6.7180   -34.8510 nt         1 UQY      -0.598000
      2 C4           2.6450    -8.2410   -36.8100 c5         1 UQY      -0.080900
      3 C5           1.9390    -6.9280   -37.2250 c5         1 UQY      -0.082900
      4 C6          -0.3430    -7.0790   -35.9350 c          1 UQY       0.609100
      5 N            1.2990    -5.0400   -35.7210 n7         1 UQY      -0.883400
      6 C            0.5940    -4.1620   -36.6820 c3         1 UQY       0.145100
      7 O           -0.8740    -7.7540   -36.8060 o          1 UQY      -0.618100
      8 C1           1.1520    -6.5280   -35.9210 c5         1 UQY       0.095200
      9 C2           1.9490    -7.2280   -34.7530 c5         1 UQY      -0.082900
     10 C3           3.2160    -7.8110   -35.4390 c5         1 UQY      -0.080900
     11 H12         -2.0320    -7.0010   -34.7760 hn         1 UQY       0.322500
     12 H13         -0.6450    -6.1140   -34.1610 hn         1 UQY       0.322500
     13 H8           3.4290    -8.5360   -37.5170 hc         1 UQY       0.048200
     14 H9           1.9430    -9.0800   -36.7220 hc         1 UQY       0.048200
     15 H11          2.6850    -6.1740   -37.5070 hc         1 UQY       0.054200
     16 H10          1.2910    -7.0590   -38.0990 hc         1 UQY       0.054200
     17 H3           2.2980    -4.7960   -35.7360 hn         1 UQY       0.422000
     18 H1           0.7420    -3.1070   -36.4180 h1         1 UQY       0.034033
     19 H2           0.9670    -4.3110   -37.7040 h1         1 UQY       0.034033
     20 H           -0.4860    -4.3610   -36.6790 h1         1 UQY       0.034033
     21 H4           2.2050    -6.5510   -33.9300 hc         1 UQY       0.054200
     22 H5           1.3640    -8.0420   -34.3060 hc         1 UQY       0.054200
     23 H6           4.0040    -7.0550   -35.5460 hc         1 UQY       0.048200
     24 H7           3.6430    -8.6510   -34.8800 hc         1 UQY       0.048200
@<TRIPOS>BOND
     1     1     4 1   
     2     1    11 1   
     3     1    12 1   
     4     2     3 1   
     5     2    10 1   
     6     2    13 1   
     7     2    14 1   
     8     3     8 1   
     9     3    15 1   
    10     3    16 1   
    11     4     7 2   
    12     4     8 1   
    13     5     6 1   
    14     5     8 1   
    15     5    17 1   
    16     6    18 1   
    17     6    19 1   
    18     6    20 1   
    19     8     9 1   
    20     9    10 1   
    21     9    21 1   
    22     9    22 1   
    23    10    23 1   
    24    10    24 1   
@<TRIPOS>SUBSTRUCTURE
     1 UQY         1 TEMP              0 ****  ****    0 ROOT
