@<TRIPOS>MOLECULE
UQY
   24    24     1     0     0
SMALL
abcg2


@<TRIPOS>ATOM
      1 N1          -1.0850    -6.4140   -34.9440 nt         1 UQY      -0.598000
      2 C4           2.7300    -8.1510   -36.8960 c5         1 UQY      -0.080900
      3 C5           1.7980    -6.9890   -37.2300 c5         1 UQY      -0.082900
      4 C6          -0.3080    -7.0880   -35.7990 c          1 UQY       0.609100
      5 N            1.1620    -5.1480   -35.5930 n7         1 UQY      -0.883400
      6 C            0.6810    -4.2760   -36.6480 c3         1 UQY       0.145100
      7 O           -0.6800    -8.0820   -36.4090 o          1 UQY      -0.618100
      8 C1           1.1320    -6.5730   -35.8910 c5         1 UQY       0.095200
      9 C2           1.9510    -7.3350   -34.8040 c5         1 UQY      -0.082900
     10 C3           3.2280    -7.7910   -35.5020 c5         1 UQY      -0.080900
     11 H12         -2.0360    -6.6960   -34.7730 hn         1 UQY       0.322500
     12 H13         -0.7280    -5.5830   -34.5000 hn         1 UQY       0.322500
     13 H8           3.5300    -8.2730   -37.6280 hc         1 UQY       0.048200
     14 H9           2.1700    -9.0900   -36.8600 hc         1 UQY       0.048200
     15 H11          2.3970    -6.1510   -37.5970 hc         1 UQY       0.054200
     16 H10          1.0790    -7.2240   -38.0140 hc         1 UQY       0.054200
     17 H3           2.1020    -4.8790   -35.3330 hn         1 UQY       0.422000
     18 H1           0.7410    -3.2420   -36.3100 h1         1 UQY       0.034033
     19 H2           1.2350    -4.3460   -37.5930 h1         1 UQY       0.034033
     20 H           -0.3670    -4.4870   -36.8640 h1         1 UQY       0.034033
     21 H4           2.1160    -6.7060   -33.9280 hc         1 UQY       0.054200
     22 H5           1.4050    -8.2170   -34.4590 hc         1 UQY       0.054200
     23 H6           3.9470    -6.9680   -35.5650 hc         1 UQY       0.048200
     24 H7           3.7180    -8.6160   -34.9830 hc         1 UQY       0.048200
@<TRIPOS>BOND
     1     1     4 1   
     2     1    11 1   
     3     1    12 1   
     4     2     3 1   
     5     2    10 1   
     6     2    13 1   
     7     2    14 1   
     8     3     8 1   
     9     3    15 1   
    10     3    16 1   
    11     4     7 2   
    12     4     8 1   
    13     5     6 1   
    14     5     8 1   
    15     5    17 1   
    16     6    18 1   
    17     6    19 1   
    18     6    20 1   
    19     8     9 1   
    20     9    10 1   
    21     9    21 1   
    22     9    22 1   
    23    10    23 1   
    24    10    24 1   
@<TRIPOS>SUBSTRUCTURE
     1 UQY         1 TEMP              0 ****  ****    0 ROOT
