@<TRIPOS>MOLECULE
UQZ
   53    55     1     0     0
SMALL
No Charge or Current Charge


@<TRIPOS>ATOM
      1 C1          21.4430     9.4530   -32.3270 c2         1 UQZ      -0.236000
      2 O2          20.0210     4.9780   -30.1380 o          1 UQZ      -0.592100
      3 O3          24.3440     2.8390   -32.5690 os         1 UQZ      -0.339100
      4 C4          18.6810     8.3070   -29.1870 c3         1 UQZ       0.114000
      5 C5          17.6180     7.5220   -29.9900 c3         1 UQZ      -0.093400
      6 C6          17.8240     7.5420   -31.5190 c3         1 UQZ      -0.088100
      7 C7          20.4150     6.6000   -28.3310 c3         1 UQZ       0.076000
      8 C8          20.4670     5.2040   -29.0190 c          1 UQZ       0.602100
      9 C9          21.2020     2.8180   -28.6840 c3         1 UQZ       0.148300
     10 C10         22.5630     2.6060   -29.3300 ca         1 UQZ      -0.116300
     11 C11         23.6620     2.1640   -28.5500 ca         1 UQZ      -0.107000
     12 C12         24.9290     1.9680   -29.1420 ca         1 UQZ      -0.102000
     13 C13         25.0630     2.2280   -30.5110 ca         1 UQZ       0.054100
     14 C2          20.7200     9.2490   -31.1970 ce         1 UQZ      -0.286200
     15 C3          21.0420     8.1870   -30.1810 c          1 UQZ       0.607300
     16 C14         24.0080     2.6560   -31.2660 ca         1 UQZ       0.052100
     17 C15         22.7380     2.8560   -30.7110 ca         1 UQZ      -0.077000
     18 O1          22.1510     7.6680   -30.1960 o          1 UQZ      -0.619100
     19 N1          20.0570     7.7330   -29.2600 n          1 UQZ      -0.386800
     20 C16         25.7860     2.5450   -32.5760 c5         1 UQZ       0.373600
     21 O4          26.1990     2.0860   -31.2390 os         1 UQZ      -0.346100
     22 C17         19.6200     6.5570   -27.0170 ca         1 UQZ      -0.066300
     23 C18         20.0490     7.3360   -25.9230 ca         1 UQZ      -0.138000
     24 C19         19.3370     7.3230   -24.7120 ca         1 UQZ      -0.071000
     25 C20         18.1840     6.5300   -24.5840 ca         1 UQZ      -0.198000
     26 C21         17.7460     5.7550   -25.6680 ca         1 UQZ       0.138100
     27 O5          16.6270     4.9870   -25.5510 oh         1 UQZ      -0.530100
     28 C22         18.4570     5.7670   -26.8780 ca         1 UQZ      -0.128000
     29 H1          22.3370     8.8700   -32.5550 ha         1 UQZ       0.175500
     30 H2          21.1600    10.2100   -33.0600 ha         1 UQZ       0.175500
     31 H3          18.3550     8.3310   -28.1400 h1         1 UQZ       0.049200
     32 H4          18.6720     9.3580   -29.4870 h1         1 UQZ       0.049200
     33 H5          16.6320     7.9460   -29.7660 hc         1 UQZ       0.047700
     34 H6          17.5940     6.4820   -29.6470 hc         1 UQZ       0.047700
     35 H7          17.0220     6.9840   -32.0170 hc         1 UQZ       0.036367
     36 H8          17.8110     8.5700   -31.9000 hc         1 UQZ       0.036367
     37 H9          18.7790     7.0790   -31.7930 hc         1 UQZ       0.036367
     38 H10         21.4540     6.7710   -28.0220 h1         1 UQZ       0.081700
     39 H11         20.4050     2.5470   -29.3900 h1         1 UQZ       0.065200
     40 H12         21.1010     2.1630   -27.8080 h1         1 UQZ       0.065200
     41 H13         23.5340     1.9720   -27.4860 ha         1 UQZ       0.115000
     42 H14         25.7770     1.6270   -28.5540 ha         1 UQZ       0.132000
     43 H15         19.8220     9.8390   -31.0530 ha         1 UQZ       0.181000
     44 H16         21.9130     3.1980   -31.3320 ha         1 UQZ       0.158000
     45 H17         21.3600     4.4650   -27.3290 hn         1 UQZ       0.316500
     46 H18         25.9980     1.7630   -33.3150 h2         1 UQZ       0.062200
     47 H19         26.3370     3.4590   -32.8280 h2         1 UQZ       0.062200
     48 H20         20.9370     7.9580   -26.0120 ha         1 UQZ       0.122000
     49 H21         19.6770     7.9280   -23.8750 ha         1 UQZ       0.117000
     50 H22         17.6370     6.5260   -23.6440 ha         1 UQZ       0.115000
     51 H23         16.2660     5.1030   -24.6460 ho         1 UQZ       0.467000
     52 H24         18.0970     5.1600   -27.7040 ha         1 UQZ       0.144000
     53 N2          21.0320     4.2050   -28.2520 ns         1 UQZ      -0.500900
@<TRIPOS>BOND
     1     1    14 2   
     2     1    29 1   
     3     1    30 1   
     4     2     8 2   
     5     3    16 1   
     6     3    20 1   
     7     4     5 1   
     8     4    19 1   
     9     4    31 1   
    10     4    32 1   
    11     5     6 1   
    12     5    33 1   
    13     5    34 1   
    14     6    35 1   
    15     6    36 1   
    16     6    37 1   
    17     7     8 1   
    18     7    19 1   
    19     7    22 1   
    20     7    38 1   
    21     8    53 1   
    22     9    10 1   
    23     9    39 1   
    24     9    40 1   
    25     9    53 1   
    26    10    11 ar  
    27    10    17 ar  
    28    11    12 ar  
    29    11    41 1   
    30    12    13 ar  
    31    12    42 1   
    32    13    16 ar  
    33    13    21 1   
    34    14    15 1   
    35    14    43 1   
    36    15    18 2   
    37    15    19 1   
    38    16    17 ar  
    39    17    44 1   
    40    20    21 1   
    41    20    46 1   
    42    20    47 1   
    43    22    23 ar  
    44    22    28 ar  
    45    23    24 ar  
    46    23    48 1   
    47    24    25 ar  
    48    24    49 1   
    49    25    26 ar  
    50    25    50 1   
    51    26    27 1   
    52    26    28 ar  
    53    27    51 1   
    54    28    52 1   
    55    45    53 1   
@<TRIPOS>SUBSTRUCTURE
     1 UQZ         1 TEMP              0 ****  ****    0 ROOT
