@<TRIPOS>MOLECULE
UQZ
   53    55     1     0     0
SMALL
bcc


@<TRIPOS>ATOM
      1 C1          21.2360     9.0810   -32.4710 c2         1 UQZ      -0.136000
      2 O2          19.5110     4.9710   -30.0600 o          1 UQZ      -0.592100
      3 O3          25.2550     3.8250   -31.6550 os         1 UQZ      -0.315900
      4 C4          18.6880     8.3230   -29.1590 c3         1 UQZ       0.114000
      5 C5          17.4620     7.6330   -29.7440 c3         1 UQZ      -0.093400
      6 C6          17.4350     7.5520   -31.2630 c3         1 UQZ      -0.088100
      7 C7          20.3750     6.5680   -28.4570 c3         1 UQZ       0.076000
      8 C8          20.2550     5.1900   -29.1200 c          1 UQZ       0.669100
      9 C9          21.1560     2.8990   -29.0050 c3         1 UQZ       0.148300
     10 C10         22.5460     2.5920   -29.5030 ca         1 UQZ      -0.116300
     11 C11         23.1960     1.4420   -29.0810 ca         1 UQZ      -0.125000
     12 C12         24.4850     1.1120   -29.5220 ca         1 UQZ      -0.120000
     13 C13         25.0810     1.9880   -30.3920 ca         1 UQZ       0.054100
     14 C2          20.4940     8.9220   -31.3800 ce         1 UQZ      -0.236200
     15 C3          20.7870     7.8270   -30.4160 c          1 UQZ       0.674300
     16 C14         24.4380     3.1400   -30.8200 ca         1 UQZ       0.052100
     17 C15         23.1780     3.4740   -30.3970 ca         1 UQZ      -0.095000
     18 O1          21.7860     7.1290   -30.5630 o          1 UQZ      -0.619100
     19 N1          19.9530     7.6300   -29.3630 n          1 UQZ      -0.453800
     20 C16         26.3910     2.9990   -31.8750 c5         1 UQZ       0.327200
     21 O4          26.3200     1.9340   -30.9380 os         1 UQZ      -0.322900
     22 C17         19.6770     6.6040   -27.1150 ca         1 UQZ      -0.066300
     23 C18         20.2070     7.4200   -26.1190 ca         1 UQZ      -0.156000
     24 C19         19.5890     7.4870   -24.8810 ca         1 UQZ      -0.089000
     25 C20         18.4500     6.7410   -24.6170 ca         1 UQZ      -0.216000
     26 C21         17.9220     5.9180   -25.6090 ca         1 UQZ       0.138100
     27 O5          16.8210     5.1660   -25.4210 oh         1 UQZ      -0.491100
     28 C22         18.5410     5.8500   -26.8560 ca         1 UQZ      -0.146000
     29 H1          22.0630     8.4260   -32.7100 ha         1 UQZ       0.125500
     30 H2          21.0270     9.8820   -33.1670 ha         1 UQZ       0.125500
     31 H3          18.5470     8.4500   -28.0870 h1         1 UQZ       0.049200
     32 H4          18.7640     9.3350   -29.5510 h1         1 UQZ       0.049200
     33 H5          16.5920     8.1980   -29.3960 hc         1 UQZ       0.047700
     34 H6          17.3610     6.6330   -29.3200 hc         1 UQZ       0.047700
     35 H7          16.5150     7.0750   -31.6040 hc         1 UQZ       0.036367
     36 H8          17.4790     8.5430   -31.7170 hc         1 UQZ       0.036367
     37 H9          18.2680     6.9650   -31.6500 hc         1 UQZ       0.036367
     38 H10         21.4370     6.7260   -28.2510 h1         1 UQZ       0.081700
     39 H11         20.4180     2.7480   -29.7930 h1         1 UQZ       0.065200
     40 H12         20.9020     2.2100   -28.1970 h1         1 UQZ       0.065200
     41 H13         22.7000     0.7760   -28.3860 ha         1 UQZ       0.133000
     42 H14         24.9840     0.2160   -29.1780 ha         1 UQZ       0.150000
     43 H15         19.6760     9.6050   -31.2040 ha         1 UQZ       0.131000
     44 H16         22.6980     4.3860   -30.7290 ha         1 UQZ       0.176000
     45 H17         21.6290     4.5350   -27.7770 hn         1 UQZ       0.316500
     46 H18         26.3700     2.6020   -32.8960 h2         1 UQZ       0.062200
     47 H19         27.3020     3.5760   -31.7110 h2         1 UQZ       0.062200
     48 H20         21.0980     8.0040   -26.3150 ha         1 UQZ       0.140000
     49 H21         20.0000     8.1200   -24.1050 ha         1 UQZ       0.135000
     50 H22         17.9770     6.7960   -23.6430 ha         1 UQZ       0.133000
     51 H23         16.4760     5.2870   -24.5290 ho         1 UQZ       0.428000
     52 H24         18.1130     5.2050   -27.6140 ha         1 UQZ       0.162000
     53 N2          21.0300     4.2600   -28.5400 ns         1 UQZ      -0.567900
@<TRIPOS>BOND
     1     1    14 2   
     2     1    29 1   
     3     1    30 1   
     4     2     8 2   
     5     3    16 1   
     6     3    20 1   
     7     4     5 1   
     8     4    19 1   
     9     4    31 1   
    10     4    32 1   
    11     5     6 1   
    12     5    33 1   
    13     5    34 1   
    14     6    35 1   
    15     6    36 1   
    16     6    37 1   
    17     7     8 1   
    18     7    19 1   
    19     7    22 1   
    20     7    38 1   
    21     8    53 1   
    22     9    10 1   
    23     9    39 1   
    24     9    40 1   
    25     9    53 1   
    26    10    11 ar  
    27    10    17 ar  
    28    11    12 ar  
    29    11    41 1   
    30    12    13 ar  
    31    12    42 1   
    32    13    16 ar  
    33    13    21 1   
    34    14    15 1   
    35    14    43 1   
    36    15    18 2   
    37    15    19 1   
    38    16    17 ar  
    39    17    44 1   
    40    20    21 1   
    41    20    46 1   
    42    20    47 1   
    43    22    23 ar  
    44    22    28 ar  
    45    23    24 ar  
    46    23    48 1   
    47    24    25 ar  
    48    24    49 1   
    49    25    26 ar  
    50    25    50 1   
    51    26    27 1   
    52    26    28 ar  
    53    27    51 1   
    54    28    52 1   
    55    45    53 1   
@<TRIPOS>SUBSTRUCTURE
     1 UQZ         1 TEMP              0 ****  ****    0 ROOT
