@<TRIPOS>MOLECULE
UR0
   40    41     1     0     0
SMALL
No Charge or Current Charge


@<TRIPOS>ATOM
      1 CAA         25.9020   -15.8280    -4.3110 ca         1 UR0       0.156100
      2 CAB         25.4040   -16.5540    -5.4010 ca         1 UR0      -0.178500
      3 CAC         25.6120   -17.9430    -5.4820 ca         1 UR0      -0.041500
      4 CAD         26.3240   -18.6150    -4.4660 ca         1 UR0      -0.120800
      5 CAE         26.8260   -17.8740    -3.3760 ca         1 UR0      -0.041500
      6 CAF         26.6130   -16.4870    -3.2970 ca         1 UR0      -0.178500
      7 CAG         26.5540   -20.0880    -4.5120 ce         1 UR0      -0.070200
      8 CAH         25.9460   -21.0210    -5.3080 cf         1 UR0      -0.313200
      9 CAI         26.1650   -22.5000    -5.3010 c          1 UR0       0.566300
     10 CAJ         27.1850   -23.1300    -4.3350 c3         1 UR0      -0.172400
     11 CAL         26.5280   -23.5470    -2.9960 c3         1 UR0      -0.032200
     12 CAM         25.9810   -22.3630    -2.2270 c2         1 UR0      -0.214200
     13 CAN         26.6900   -21.6010    -1.3650 ce         1 UR0      -0.158200
     14 CAO         26.1810   -20.3950    -0.6500 ca         1 UR0      -0.088800
     15 CAP         26.8880   -19.9110     0.4690 ca         1 UR0      -0.062000
     16 CAQ         26.4520   -18.7590     1.1470 ca         1 UR0      -0.169500
     17 CAR         25.3070   -18.0780     0.7070 ca         1 UR0       0.133100
     18 CAS         24.6010   -18.5460    -0.4100 ca         1 UR0      -0.169500
     19 CAT         25.0340   -19.6990    -1.0880 ca         1 UR0      -0.062000
     20 OAK         25.5110   -23.2090    -6.0540 o          1 UR0      -0.536100
     21 OAU         25.6910   -14.4840    -4.2430 oh         1 UR0      -0.531100
     22 OAV         24.8790   -16.9590     1.3560 oh         1 UR0      -0.538100
     23 H1          24.8550   -16.0420    -6.1880 ha         1 UR0       0.124000
     24 H2          25.2220   -18.4840    -6.3400 ha         1 UR0       0.117000
     25 H3          27.3750   -18.3740    -2.5810 ha         1 UR0       0.117000
     26 H4          27.0030   -15.9340    -2.4460 ha         1 UR0       0.124000
     27 H5          27.2900   -20.4190    -3.7810 ha         1 UR0       0.173000
     28 H6          25.1940   -20.6910    -6.0210 ha         1 UR0       0.194000
     29 H7          27.6040   -24.0290    -4.8020 hc         1 UR0       0.061700
     30 H8          27.9920   -22.4280    -4.1070 hc         1 UR0       0.061700
     31 H9          25.7250   -24.2680    -3.1970 hc         1 UR0       0.054700
     32 H10         27.2700   -24.0790    -2.3870 hc         1 UR0       0.054700
     33 H11         24.9340   -22.1480    -2.4410 ha         1 UR0       0.175000
     34 H12         27.7330   -21.8500    -1.1580 ha         1 UR0       0.167000
     35 H13         27.7800   -20.4290     0.8160 ha         1 UR0       0.115000
     36 H14         27.0090   -18.4030     2.0100 ha         1 UR0       0.122000
     37 H15         23.7200   -18.0120    -0.7570 ha         1 UR0       0.122000
     38 H16         24.4830   -20.0290    -1.9640 ha         1 UR0       0.115000
     39 H17         26.1060   -14.1470    -3.4200 ho         1 UR0       0.466000
     40 H18         25.4860   -16.7840     2.1060 ho         1 UR0       0.460000
@<TRIPOS>BOND
     1     1     2 ar  
     2     1     6 ar  
     3     1    21 1   
     4     2     3 ar  
     5     2    23 1   
     6     3     4 ar  
     7     3    24 1   
     8     4     5 ar  
     9     4     7 1   
    10     5     6 ar  
    11     5    25 1   
    12     6    26 1   
    13     7     8 2   
    14     7    27 1   
    15     8     9 1   
    16     8    28 1   
    17     9    10 1   
    18     9    20 2   
    19    10    11 1   
    20    10    29 1   
    21    10    30 1   
    22    11    12 1   
    23    11    31 1   
    24    11    32 1   
    25    12    13 2   
    26    12    33 1   
    27    13    14 1   
    28    13    34 1   
    29    14    15 ar  
    30    14    19 ar  
    31    15    16 ar  
    32    15    35 1   
    33    16    17 ar  
    34    16    36 1   
    35    17    18 ar  
    36    17    22 1   
    37    18    19 ar  
    38    18    37 1   
    39    19    38 1   
    40    21    39 1   
    41    22    40 1   
@<TRIPOS>SUBSTRUCTURE
     1 UR0         1 TEMP              0 ****  ****    0 ROOT
