@<TRIPOS>MOLECULE
UR0
   40    41     1     0     0
SMALL
abcg2


@<TRIPOS>ATOM
      1 CAA         25.8900   -16.1210    -3.6220 ca         1 UR0       0.156100
      2 CAB         25.1480   -16.7710    -4.6130 ca         1 UR0      -0.178500
      3 CAC         25.4330   -18.0820    -4.9380 ca         1 UR0      -0.041500
      4 CAD         26.4670   -18.7810    -4.2910 ca         1 UR0      -0.120800
      5 CAE         27.2070   -18.1010    -3.3130 ca         1 UR0      -0.041500
      6 CAF         26.9300   -16.7890    -2.9760 ca         1 UR0      -0.178500
      7 CAG         26.7460   -20.1840    -4.5150 ce         1 UR0      -0.070200
      8 CAH         26.1010   -21.0370    -5.3370 cf         1 UR0      -0.313200
      9 CAI         26.3020   -22.4820    -5.3420 c          1 UR0       0.566300
     10 CAJ         27.2420   -23.1320    -4.3480 c3         1 UR0      -0.172400
     11 CAL         26.5290   -23.4950    -3.0120 c3         1 UR0      -0.032200
     12 CAM         25.9040   -22.3100    -2.3450 c2         1 UR0      -0.214200
     13 CAN         26.4740   -21.6000    -1.3690 ce         1 UR0      -0.158200
     14 CAO         26.0030   -20.3220    -0.8290 ca         1 UR0      -0.088800
     15 CAP         26.8010   -19.6300     0.0880 ca         1 UR0      -0.062000
     16 CAQ         26.4480   -18.3730     0.5620 ca         1 UR0      -0.169500
     17 CAR         25.2690   -17.7780     0.1230 ca         1 UR0       0.133100
     18 CAS         24.4470   -18.4550    -0.7790 ca         1 UR0      -0.169500
     19 CAT         24.8130   -19.7040    -1.2440 ca         1 UR0      -0.062000
     20 OAK         25.6440   -23.1930    -6.1060 o          1 UR0      -0.536100
     21 OAU         25.5500   -14.8410    -3.3240 oh         1 UR0      -0.531100
     22 OAV         24.8700   -16.5380     0.5330 oh         1 UR0      -0.538100
     23 H1          24.3460   -16.2370    -5.1060 ha         1 UR0       0.124000
     24 H2          24.8370   -18.5740    -5.6940 ha         1 UR0       0.117000
     25 H3          27.9960   -18.6270    -2.7900 ha         1 UR0       0.117000
     26 H4          27.4960   -16.2840    -2.2030 ha         1 UR0       0.124000
     27 H5          27.5400   -20.5760    -3.8920 ha         1 UR0       0.173000
     28 H6          25.3080   -20.6940    -5.9920 ha         1 UR0       0.194000
     29 H7          27.6140   -24.0500    -4.8030 hc         1 UR0       0.061700
     30 H8          28.0950   -22.4910    -4.1280 hc         1 UR0       0.061700
     31 H9          25.7710   -24.2520    -3.2290 hc         1 UR0       0.054700
     32 H10         27.2750   -23.9500    -2.3570 hc         1 UR0       0.054700
     33 H11         24.9700   -21.9660    -2.7750 ha         1 UR0       0.175000
     34 H12         27.4250   -21.9450    -0.9680 ha         1 UR0       0.167000
     35 H13         27.7290   -20.0790     0.4230 ha         1 UR0       0.115000
     36 H14         27.0870   -17.8500     1.2640 ha         1 UR0       0.122000
     37 H15         23.5340   -17.9830    -1.1190 ha         1 UR0       0.122000
     38 H16         24.1690   -20.1970    -1.9600 ha         1 UR0       0.115000
     39 H17         26.1210   -14.4980    -2.6210 ho         1 UR0       0.466000
     40 H18         25.5210   -16.1670     1.1460 ho         1 UR0       0.460000
@<TRIPOS>BOND
     1     1     2 ar  
     2     1     6 ar  
     3     1    21 1   
     4     2     3 ar  
     5     2    23 1   
     6     3     4 ar  
     7     3    24 1   
     8     4     5 ar  
     9     4     7 1   
    10     5     6 ar  
    11     5    25 1   
    12     6    26 1   
    13     7     8 2   
    14     7    27 1   
    15     8     9 1   
    16     8    28 1   
    17     9    10 1   
    18     9    20 2   
    19    10    11 1   
    20    10    29 1   
    21    10    30 1   
    22    11    12 1   
    23    11    31 1   
    24    11    32 1   
    25    12    13 2   
    26    12    33 1   
    27    13    14 1   
    28    13    34 1   
    29    14    15 ar  
    30    14    19 ar  
    31    15    16 ar  
    32    15    35 1   
    33    16    17 ar  
    34    16    36 1   
    35    17    18 ar  
    36    17    22 1   
    37    18    19 ar  
    38    18    37 1   
    39    19    38 1   
    40    21    39 1   
    41    22    40 1   
@<TRIPOS>SUBSTRUCTURE
     1 UR0         1 TEMP              0 ****  ****    0 ROOT
