@<TRIPOS>MOLECULE
UR1
   20    20     1     0     0
SMALL
No Charge or Current Charge


@<TRIPOS>ATOM
      1 C4           5.2250    28.4120   -11.6490 ca         1 UR1      -0.072000
      2 C5           4.7850    27.1050   -11.9570 ca         1 UR1      -0.236500
      3 C6           5.3390    26.4270   -13.0650 ca         1 UR1      -0.023000
      4 N            2.1320    26.7600   -11.6710 n8         1 UR1      -1.001100
      5 O            3.4410    26.9320    -9.6290 o          1 UR1      -0.540000
      6 C1           6.3250    27.0450   -13.8600 ca         1 UR1      -0.065300
      7 C2           6.7600    28.3470   -13.5410 ca         1 UR1      -0.105000
      8 C3           6.2090    29.0230   -12.4420 ca         1 UR1       0.159000
      9 F            6.6290    30.2730   -12.1440 f          1 UR1      -0.174000
     10 O1           3.5490    24.8600   -11.1260 o          1 UR1      -0.540000
     11 S            3.5240    26.3100   -10.9480 sy         1 UR1       1.123600
     12 H4           4.8100    28.9550   -10.8030 ha         1 UR1       0.153000
     13 H5           5.0050    25.4200   -13.3120 ha         1 UR1       0.142000
     14 H7           1.6870    25.8540   -11.7950 hn         1 UR1       0.474000
     15 H6           1.6250    27.1390   -10.8740 hn         1 UR1       0.474000
     16 H2           7.7660    25.6830   -14.7390 hc         1 UR1       0.050033
     17 H1           6.1800    25.6570   -15.5280 hc         1 UR1       0.050033
     18 H            7.2850    27.0070   -15.8140 hc         1 UR1       0.050033
     19 H3           7.5220    28.8350   -14.1430 ha         1 UR1       0.134000
     20 C            6.9210    26.3090   -15.0500 c3         1 UR1      -0.052800
@<TRIPOS>BOND
     1     1     2 ar  
     2     1     8 ar  
     3     1    12 1   
     4     2     3 ar  
     5     2    11 1   
     6     3     6 ar  
     7     3    13 1   
     8     4    11 1   
     9     4    14 1   
    10     4    15 1   
    11     5    11 2   
    12     6     7 ar  
    13     6    20 1   
    14     7     8 ar  
    15     7    19 1   
    16     8     9 1   
    17    10    11 2   
    18    16    20 1   
    19    17    20 1   
    20    18    20 1   
@<TRIPOS>SUBSTRUCTURE
     1 UR1         1 TEMP              0 ****  ****    0 ROOT
