@<TRIPOS>MOLECULE
UR1
   20    20     1     0     0
SMALL
abcg2


@<TRIPOS>ATOM
      1 C4           5.2140    28.3510   -11.5780 ca         1 UR1      -0.072000
      2 C5           4.8050    27.0760   -11.9370 ca         1 UR1      -0.236500
      3 C6           5.3110    26.4210   -13.0500 ca         1 UR1      -0.023000
      4 N            2.2140    26.5820   -11.7820 n8         1 UR1      -1.001100
      5 O            3.6150    26.8720    -9.6180 o          1 UR1      -0.540000
      6 C1           6.2640    27.0500   -13.8450 ca         1 UR1      -0.065300
      7 C2           6.6810    28.3340   -13.5050 ca         1 UR1      -0.105000
      8 C3           6.1530    28.9540   -12.3900 ca         1 UR1       0.159000
      9 F            6.5690    30.1880   -12.0790 f          1 UR1      -0.174000
     10 O1           3.7860    24.8140   -11.0280 o          1 UR1      -0.540000
     11 S            3.5930    26.2530   -10.9360 sy         1 UR1       1.123600
     12 H4           4.8260    28.8610   -10.7060 ha         1 UR1       0.153000
     13 H5           4.9730    25.4250   -13.3020 ha         1 UR1       0.142000
     14 H7           1.4600    25.9540   -11.5180 hn         1 UR1       0.474000
     15 H6           1.9140    27.5470   -11.6850 hn         1 UR1       0.474000
     16 H2           7.7510    25.7920   -14.7340 hc         1 UR1       0.050033
     17 H1           6.1590    25.6320   -15.4600 hc         1 UR1       0.050033
     18 H            7.1520    27.0500   -15.8050 hc         1 UR1       0.050033
     19 H3           7.4190    28.8510   -14.1060 ha         1 UR1       0.134000
     20 C            6.8580    26.3460   -15.0280 c3         1 UR1      -0.052800
@<TRIPOS>BOND
     1     1     2 ar  
     2     1     8 ar  
     3     1    12 1   
     4     2     3 ar  
     5     2    11 1   
     6     3     6 ar  
     7     3    13 1   
     8     4    11 1   
     9     4    14 1   
    10     4    15 1   
    11     5    11 2   
    12     6     7 ar  
    13     6    20 1   
    14     7     8 ar  
    15     7    19 1   
    16     8     9 1   
    17    10    11 2   
    18    16    20 1   
    19    17    20 1   
    20    18    20 1   
@<TRIPOS>SUBSTRUCTURE
     1 UR1         1 TEMP              0 ****  ****    0 ROOT
