@<TRIPOS>MOLECULE
UR4
   29    30     1     0     0
SMALL
No Charge or Current Charge


@<TRIPOS>ATOM
      1 N1         -13.7750   -20.5610   -22.6240 nc         1 UR4      -0.708000
      2 C4         -13.8270   -19.6700   -23.6640 cc         1 UR4       0.374500
      3 C5         -12.6830   -18.9640   -23.9430 cd         1 UR4      -0.308000
      4 C6         -15.0550   -19.4240   -24.4380 ca         1 UR4      -0.119500
      5 C7         -15.0060   -18.9200   -25.7600 ca         1 UR4      -0.086500
      6 C8         -16.1870   -18.7250   -26.4980 ca         1 UR4      -0.117500
      7 C10        -17.4950   -19.5670   -24.6350 ca         1 UR4      -0.117500
      8 C           -9.8160   -21.6320   -17.4580 c3         1 UR4       0.134900
      9 O          -10.0320   -22.7150   -18.3850 os         1 UR4      -0.416000
     10 C1         -11.2330   -22.6110   -19.1960 c3         1 UR4       0.090600
     11 C11        -16.3160   -19.7630   -23.8950 ca         1 UR4      -0.086500
     12 C2         -11.1330   -21.5670   -20.3430 c          1 UR4       0.562100
     13 C3         -12.5630   -20.5610   -22.1010 cd         1 UR4       0.534300
     14 C9         -17.4320   -19.0430   -25.9350 ca         1 UR4      -0.103000
     15 O1         -10.1080   -20.9510   -20.6020 o          1 UR4      -0.551100
     16 S          -11.4020   -19.4500   -22.8500 ss         1 UR4       0.068600
     17 H6         -12.5150   -18.1990   -24.6880 h4         1 UR4       0.160000
     18 H7         -14.0550   -18.6850   -26.2310 ha         1 UR4       0.120000
     19 H8         -16.1340   -18.3320   -27.5110 ha         1 UR4       0.112000
     20 H10        -18.4580   -19.8230   -24.1990 ha         1 UR4       0.112000
     21 H5         -13.0770   -21.9630   -20.7340 hn         1 UR4       0.339500
     22 H           -8.8980   -21.8030   -16.8820 h1         1 UR4       0.039367
     23 H2          -9.7130   -20.6740   -17.9820 h1         1 UR4       0.039367
     24 H1         -10.6510   -21.5520   -16.7500 h1         1 UR4       0.039367
     25 H3         -11.4450   -23.5770   -19.6700 h1         1 UR4       0.066200
     26 H4         -12.1030   -22.3570   -18.5760 h1         1 UR4       0.066200
     27 H11        -16.3880   -20.1730   -22.8900 ha         1 UR4       0.120000
     28 H9         -18.3450   -18.8930   -26.5090 ha         1 UR4       0.112000
     29 N          -12.3040   -21.3930   -21.0460 ns         1 UR4      -0.476400
@<TRIPOS>BOND
     1     1     2 1   
     2     1    13 2   
     3     2     3 2   
     4     2     4 1   
     5     3    16 1   
     6     3    17 1   
     7     4     5 ar  
     8     4    11 ar  
     9     5     6 ar  
    10     5    18 1   
    11     6    14 ar  
    12     6    19 1   
    13     7    11 ar  
    14     7    14 ar  
    15     7    20 1   
    16     8     9 1   
    17     8    22 1   
    18     8    23 1   
    19     8    24 1   
    20     9    10 1   
    21    10    12 1   
    22    10    25 1   
    23    10    26 1   
    24    11    27 1   
    25    12    15 2   
    26    12    29 1   
    27    13    16 1   
    28    13    29 1   
    29    14    28 1   
    30    21    29 1   
@<TRIPOS>SUBSTRUCTURE
     1 UR4         1 TEMP              0 ****  ****    0 ROOT
