@<TRIPOS>MOLECULE
UR4
   29    30     1     0     0
SMALL
abcg2


@<TRIPOS>ATOM
      1 N1         -13.7950   -20.5430   -22.6040 nc         1 UR4      -0.708000
      2 C4         -13.7640   -19.7350   -23.7120 cc         1 UR4       0.374500
      3 C5         -12.5310   -19.2450   -24.0160 cd         1 UR4      -0.308000
      4 C6         -15.0110   -19.4710   -24.4420 ca         1 UR4      -0.119500
      5 C7         -15.0080   -18.7590   -25.6440 ca         1 UR4      -0.086500
      6 C8         -16.1900   -18.5050   -26.3200 ca         1 UR4      -0.117500
      7 C10        -17.4140   -19.6720   -24.6190 ca         1 UR4      -0.117500
      8 C           -9.9730   -21.4420   -17.5790 c3         1 UR4       0.134900
      9 O          -10.0260   -22.5350   -18.4710 os         1 UR4      -0.416000
     10 C1         -11.1960   -22.5880   -19.2150 c3         1 UR4       0.090600
     11 C11        -16.2310   -19.9280   -23.9410 ca         1 UR4      -0.086500
     12 C2         -11.1880   -21.6130   -20.3800 c          1 UR4       0.562100
     13 C3         -12.6210   -20.6640   -22.0810 cd         1 UR4       0.534300
     14 C9         -17.4010   -18.9600   -25.8110 ca         1 UR4      -0.103000
     15 O1         -10.1900   -21.0620   -20.7960 o          1 UR4      -0.551100
     16 S          -11.3580   -19.8010   -22.8890 ss         1 UR4       0.068600
     17 H6         -12.2440   -18.5900   -24.8240 h4         1 UR4       0.160000
     18 H7         -14.0760   -18.4020   -26.0640 ha         1 UR4       0.120000
     19 H8         -16.1660   -17.9520   -27.2500 ha         1 UR4       0.112000
     20 H10        -18.3510   -20.0310   -24.2120 ha         1 UR4       0.112000
     21 H5         -13.2200   -21.8950   -20.5870 hn         1 UR4       0.339500
     22 H           -9.0500   -21.5270   -17.0090 h1         1 UR4       0.039367
     23 H2          -9.9700   -20.4770   -18.0950 h1         1 UR4       0.039367
     24 H1         -10.8170   -21.4550   -16.8810 h1         1 UR4       0.039367
     25 H3         -11.2850   -23.5950   -19.6360 h1         1 UR4       0.066200
     26 H4         -12.0910   -22.4230   -18.6000 h1         1 UR4       0.066200
     27 H11        -16.2540   -20.4830   -23.0130 ha         1 UR4       0.120000
     28 H9         -18.3240   -18.7640   -26.3390 ha         1 UR4       0.112000
     29 N          -12.4040   -21.4310   -20.9630 ns         1 UR4      -0.476400
@<TRIPOS>BOND
     1     1     2 1   
     2     1    13 2   
     3     2     3 2   
     4     2     4 1   
     5     3    16 1   
     6     3    17 1   
     7     4     5 ar  
     8     4    11 ar  
     9     5     6 ar  
    10     5    18 1   
    11     6    14 ar  
    12     6    19 1   
    13     7    11 ar  
    14     7    14 ar  
    15     7    20 1   
    16     8     9 1   
    17     8    22 1   
    18     8    23 1   
    19     8    24 1   
    20     9    10 1   
    21    10    12 1   
    22    10    25 1   
    23    10    26 1   
    24    11    27 1   
    25    12    15 2   
    26    12    29 1   
    27    13    16 1   
    28    13    29 1   
    29    14    28 1   
    30    21    29 1   
@<TRIPOS>SUBSTRUCTURE
     1 UR4         1 TEMP              0 ****  ****    0 ROOT
