@<TRIPOS>MOLECULE
UR5
   19    20     1     0     0
SMALL
bcc


@<TRIPOS>ATOM
      1 N          109.1700   139.3360    96.5390 ns         1 UR5      -0.448400
      2 C          110.1800   139.8200    97.2750 c          1 UR5       0.692500
      3 O          111.1300   140.4530    96.8470 o          1 UR5      -0.654500
      4 C1         108.7500   138.4330    98.5840 c5         1 UR5       0.103100
      5 C2         109.8710   139.4580    98.7060 c5         1 UR5      -0.194700
      6 C3         109.2300   140.6300    99.5040 c5         1 UR5       0.169800
      7 C4         107.6740   138.9090    99.5570 c5         1 UR5       0.010500
      8 C5         107.9040   138.3680   100.9910 c          1 UR5       0.946600
      9 N1         107.8010   140.3680    99.5640 n7         1 UR5      -0.756200
     10 O1         108.2530   138.5700    97.2290 os         1 UR5      -0.247900
     11 O2         106.9350   138.4480   101.7660 o          1 UR5      -0.825300
     12 O3         109.0430   137.9260   101.2480 o          1 UR5      -0.825300
     13 H1         109.1560   139.2060    95.5370 hn         1 UR5       0.332500
     14 H2         109.0660   137.3980    98.7260 h1         1 UR5       0.091700
     15 H3         110.7650   139.0750    99.1940 hc         1 UR5       0.108700
     16 H4         109.6540   140.6450   100.5090 h1         1 UR5       0.055200
     17 H5         109.4260   141.6060    99.0590 h1         1 UR5       0.055200
     18 H6         106.6710   138.6320    99.2210 h1         1 UR5       0.062700
     19 H7         107.3570   140.7420    98.7330 hn         1 UR5       0.322800
@<TRIPOS>BOND
     1     1     2 1   
     2     1    10 1   
     3     1    13 1   
     4     2     3 2   
     5     2     5 1   
     6     4     5 1   
     7     4     7 1   
     8     4    10 1   
     9     4    14 1   
    10     5     6 1   
    11     5    15 1   
    12     6     9 1   
    13     6    16 1   
    14     6    17 1   
    15     7     8 1   
    16     7     9 1   
    17     7    18 1   
    18     8    11 1   
    19     8    12 1   
    20     9    19 1   
@<TRIPOS>SUBSTRUCTURE
     1 UR5         1 TEMP              0 ****  ****    0 ROOT
