@<TRIPOS>MOLECULE
UR5
   19    20     1     0     0
SMALL
No Charge or Current Charge


@<TRIPOS>ATOM
      1 N          109.1430   139.4030    96.5260 ns         1 UR5      -0.381400
      2 C          110.1780   139.8800    97.2900 c          1 UR5       0.550000
      3 O          111.2340   140.2850    96.8280 o          1 UR5      -0.579000
      4 C1         108.7030   138.4550    98.5650 c5         1 UR5       0.126300
      5 C2         109.8460   139.4900    98.7130 c5         1 UR5      -0.194700
      6 C3         109.2200   140.6920    99.4830 c5         1 UR5       0.169800
      7 C4         107.6520   138.9410    99.6060 c5         1 UR5       0.010500
      8 C5         107.9420   138.3040   101.0340 c          1 UR5       0.736000
      9 N1         107.7590   140.4450    99.4910 n7         1 UR5      -0.811400
     10 O1         108.1300   138.6710    97.2430 os         1 UR5      -0.271100
     11 O2         107.0280   138.2660   101.8480 o          1 UR5      -0.720000
     12 O3         109.0390   137.8230   101.2930 o          1 UR5      -0.720000
     13 H1         109.2850   139.1550    95.5510 hn         1 UR5       0.332500
     14 H2         109.0180   137.4070    98.6710 h1         1 UR5       0.091700
     15 H3         110.7470   139.1240    99.2150 hc         1 UR5       0.108700
     16 H4         109.5980   140.7100   100.5160 h1         1 UR5       0.055200
     17 H5         109.4680   141.6640    99.0320 h1         1 UR5       0.055200
     18 H6         106.6460   138.6040    99.3220 h1         1 UR5       0.062700
     19 H7         107.4010   140.7010    98.5630 hn         1 UR5       0.378000
@<TRIPOS>BOND
     1     1     2 1   
     2     1    10 1   
     3     1    13 1   
     4     2     3 2   
     5     2     5 1   
     6     4     5 1   
     7     4     7 1   
     8     4    10 1   
     9     4    14 1   
    10     5     6 1   
    11     5    15 1   
    12     6     9 1   
    13     6    16 1   
    14     6    17 1   
    15     7     8 1   
    16     7     9 1   
    17     7    18 1   
    18     8    11 1   
    19     8    12 1   
    20     9    19 1   
@<TRIPOS>SUBSTRUCTURE
     1 UR5         1 TEMP              0 ****  ****    0 ROOT
