@<TRIPOS>MOLECULE
UR7
   23    23     1     0     0
SMALL
abcg2


@<TRIPOS>ATOM
      1 C4         -12.2620    21.3670   -21.3370 ca         1 UR7      -0.049300
      2 C5         -12.8410    20.6470   -22.5150 c3         1 UR7      -0.244100
      3 C6         -11.0670    22.0750   -21.4620 ca         1 UR7      -0.128000
      4 C7         -10.5520    22.7150   -20.3540 ca         1 UR7       0.160000
      5 N          -10.7800    18.9020   -22.7530 n8         1 UR7      -1.039100
      6 C          -10.5310    23.4030   -17.9300 c3         1 UR7      -0.041800
      7 O          -12.6900    18.2960   -21.2900 o          1 UR7      -0.548500
      8 C1         -11.1480    22.6920   -19.0990 ca         1 UR7      -0.101300
      9 C2         -12.3430    21.9780   -19.0000 ca         1 UR7      -0.085000
     10 C3         -12.8960    21.3280   -20.0970 ca         1 UR7      -0.098000
     11 F           -9.3900    23.4090   -20.4980 f          1 UR7      -0.186000
     12 O1         -13.0500    18.3620   -23.7550 o          1 UR7      -0.548500
     13 S          -12.4100    18.9000   -22.5730 s6         1 UR7       1.193100
     14 H6         -13.9310    20.6410   -22.4990 h1         1 UR7       0.104700
     15 H5         -12.5010    21.0560   -23.4660 h1         1 UR7       0.104700
     16 H9         -10.5430    22.1300   -22.4080 ha         1 UR7       0.132000
     17 H7         -10.3160    18.2710   -22.1110 hn         1 UR7       0.489500
     18 H8         -10.4760    18.7920   -23.7140 hn         1 UR7       0.489500
     19 H1          -9.5170    23.0440   -17.7420 hc         1 UR7       0.050033
     20 H2         -10.4620    24.4780   -18.1150 hc         1 UR7       0.050033
     21 H          -11.1270    23.2450   -17.0320 hc         1 UR7       0.050033
     22 H3         -12.8460    21.9370   -18.0420 ha         1 UR7       0.121000
     23 H4         -13.8250    20.7830   -19.9890 ha         1 UR7       0.127000
@<TRIPOS>BOND
     1     1     2 1   
     2     1     3 ar  
     3     1    10 ar  
     4     2    13 1   
     5     2    14 1   
     6     2    15 1   
     7     3     4 ar  
     8     3    16 1   
     9     4     8 ar  
    10     4    11 1   
    11     5    13 1   
    12     5    17 1   
    13     5    18 1   
    14     6     8 1   
    15     6    19 1   
    16     6    20 1   
    17     6    21 1   
    18     7    13 2   
    19     8     9 ar  
    20     9    10 ar  
    21     9    22 1   
    22    10    23 1   
    23    12    13 2   
@<TRIPOS>SUBSTRUCTURE
     1 UR7         1 TEMP              0 ****  ****    0 ROOT
