@<TRIPOS>MOLECULE
UR7
   23    23     1     0     0
SMALL
No Charge or Current Charge


@<TRIPOS>ATOM
      1 C4         -12.2440    21.3570   -21.3180 ca         1 UR7      -0.049300
      2 C5         -12.8500    20.6380   -22.5200 c3         1 UR7      -0.244100
      3 C6         -11.0500    22.0870   -21.4540 ca         1 UR7      -0.128000
      4 C7         -10.5000    22.7570   -20.3490 ca         1 UR7       0.160000
      5 N          -10.7860    18.9920   -22.9170 n8         1 UR7      -1.039100
      6 C          -10.5400    23.4380   -17.8920 c3         1 UR7      -0.041800
      7 O          -12.5600    18.1940   -21.4140 o          1 UR7      -0.548500
      8 C1         -11.1360    22.7110   -19.0920 ca         1 UR7      -0.101300
      9 C2         -12.3340    21.9830   -18.9590 ca         1 UR7      -0.085000
     10 C3         -12.8850    21.3120   -20.0650 ca         1 UR7      -0.098000
     11 F           -9.3490    23.4510   -20.5040 f          1 UR7      -0.186000
     12 O1         -12.9370    18.3490   -23.9220 o          1 UR7      -0.548500
     13 S          -12.3990    18.9030   -22.6820 s6         1 UR7       1.193100
     14 H6         -13.9430    20.6520   -22.4620 h1         1 UR7       0.104700
     15 H5         -12.5420    21.1150   -23.4560 h1         1 UR7       0.104700
     16 H9         -10.5430    22.1350   -22.4140 ha         1 UR7       0.132000
     17 H7         -10.4540    18.5430   -22.0670 hn         1 UR7       0.489500
     18 H8         -10.6540    18.2570   -23.6080 hn         1 UR7       0.489500
     19 H1          -9.5330    23.0660   -17.6680 hc         1 UR7       0.050033
     20 H2         -10.4640    24.5150   -18.0840 hc         1 UR7       0.050033
     21 H          -11.1490    23.3050   -16.9900 hc         1 UR7       0.050033
     22 H3         -12.8430    21.9350   -17.9980 ha         1 UR7       0.121000
     23 H4         -13.8120    20.7550   -19.9470 ha         1 UR7       0.127000
@<TRIPOS>BOND
     1     1     2 1   
     2     1     3 ar  
     3     1    10 ar  
     4     2    13 1   
     5     2    14 1   
     6     2    15 1   
     7     3     4 ar  
     8     3    16 1   
     9     4     8 ar  
    10     4    11 1   
    11     5    13 1   
    12     5    17 1   
    13     5    18 1   
    14     6     8 1   
    15     6    19 1   
    16     6    20 1   
    17     6    21 1   
    18     7    13 2   
    19     8     9 ar  
    20     9    10 ar  
    21     9    22 1   
    22    10    23 1   
    23    12    13 2   
@<TRIPOS>SUBSTRUCTURE
     1 UR7         1 TEMP              0 ****  ****    0 ROOT
