@<TRIPOS>MOLECULE
UR8
   19    20     1     0     0
SMALL
No Charge or Current Charge


@<TRIPOS>ATOM
      1 N          109.6680   138.9210    96.8430 ns         1 UR8      -0.356400
      2 C          109.7810   140.1820    97.3710 c          1 UR8       0.565000
      3 O          110.4670   141.0670    96.8800 o          1 UR8      -0.574000
      4 O1         108.4660   138.2180    97.2160 os         1 UR8      -0.253100
      5 O2         106.2160   137.6860   100.3630 o          1 UR8      -0.724500
      6 O3         107.5570   138.3280   101.8950 o          1 UR8      -0.724500
      7 C1         107.9780   138.9180    98.3970 c5         1 UR8       0.155300
      8 C2         108.7160   140.2840    98.4450 c5         1 UR8      -0.187700
      9 C3         109.3820   140.3180    99.8440 c5         1 UR8       0.167800
     10 C4         108.5010   138.1470    99.6630 c5         1 UR8      -0.015500
     11 C5         107.3260   138.0520   100.7240 c          1 UR8       0.701000
     12 N1         109.7310   138.9100   100.1040 n7         1 UR8      -0.846400
     13 H1         110.0300   138.7230    95.9160 hn         1 UR8       0.326500
     14 H3         106.8840   139.0050    98.3490 h1         1 UR8       0.107700
     15 H4         108.0940   141.1670    98.2700 hc         1 UR8       0.072700
     16 H5         110.2630   140.9750    99.8790 h1         1 UR8       0.040200
     17 H6         108.6670   140.6800   100.5970 h1         1 UR8       0.040200
     18 H7         108.7590   137.1090    99.4160 h1         1 UR8       0.074700
     19 H8         109.8800   138.7690   101.1140 hn         1 UR8       0.431000
@<TRIPOS>BOND
     1     1     2 1   
     2     1     4 1   
     3     1    13 1   
     4     2     3 2   
     5     2     8 1   
     6     4     7 1   
     7     5    11 1   
     8     6    11 1   
     9     7     8 1   
    10     7    10 1   
    11     7    14 1   
    12     8     9 1   
    13     8    15 1   
    14     9    12 1   
    15     9    16 1   
    16     9    17 1   
    17    10    11 1   
    18    10    12 1   
    19    10    18 1   
    20    12    19 1   
@<TRIPOS>SUBSTRUCTURE
     1 UR8         1 TEMP              0 ****  ****    0 ROOT
