@<TRIPOS>MOLECULE
UR8
   19    20     1     0     0
SMALL
bcc


@<TRIPOS>ATOM
      1 N          109.5380   138.9010    96.8230 ns         1 UR8      -0.423400
      2 C          109.8030   140.0860    97.4030 c          1 UR8       0.707500
      3 O          110.7540   140.8000    97.1500 o          1 UR8      -0.649500
      4 O1         108.2960   138.3850    97.1550 os         1 UR8      -0.229900
      5 O2         106.3530   137.4940   100.2950 o          1 UR8      -0.829800
      6 O3         107.7180   138.2640   101.8890 o          1 UR8      -0.829800
      7 C1         107.9800   138.9750    98.4220 c5         1 UR8       0.132100
      8 C2         108.7290   140.3070    98.4510 c5         1 UR8      -0.187700
      9 C3         109.3160   140.3790    99.8500 c5         1 UR8       0.167800
     10 C4         108.5230   138.2060    99.6390 c5         1 UR8      -0.015500
     11 C5         107.4210   137.9800   100.7130 c          1 UR8       0.911600
     12 N1         109.6660   138.9890   100.0990 n7         1 UR8      -0.791200
     13 H1         109.8670   138.6070    95.9140 hn         1 UR8       0.326500
     14 H3         106.8950   139.0540    98.4410 h1         1 UR8       0.107700
     15 H4         108.1280   141.1790    98.1860 hc         1 UR8       0.072700
     16 H5         110.1880   141.0350    99.9020 h1         1 UR8       0.040200
     17 H6         108.5610   140.7770   100.5420 h1         1 UR8       0.040200
     18 H7         108.8500   137.2090    99.3200 h1         1 UR8       0.074700
     19 H8         109.7800   138.8320   101.0930 hn         1 UR8       0.375800
@<TRIPOS>BOND
     1     1     2 1   
     2     1     4 1   
     3     1    13 1   
     4     2     3 2   
     5     2     8 1   
     6     4     7 1   
     7     5    11 1   
     8     6    11 1   
     9     7     8 1   
    10     7    10 1   
    11     7    14 1   
    12     8     9 1   
    13     8    15 1   
    14     9    12 1   
    15     9    16 1   
    16     9    17 1   
    17    10    11 1   
    18    10    12 1   
    19    10    18 1   
    20    12    19 1   
@<TRIPOS>SUBSTRUCTURE
     1 UR8         1 TEMP              0 ****  ****    0 ROOT
