@<TRIPOS>MOLECULE
URA
   12    12     1     0     0
SMALL
bcc


@<TRIPOS>ATOM
      1 N1           1.0150    -0.0110    -1.1570 ns         1 URA      -0.473100
      2 C2          -0.3550    -0.0090    -1.1800 c          1 URA       0.825500
      3 O2          -1.0020    -0.0020    -2.2060 o          1 URA      -0.626500
      4 N3          -0.9270    -0.0170     0.0670 ns         1 URA      -0.606500
      5 C4          -0.2820    -0.0220     1.2980 c          1 URA       0.730700
      6 O4          -0.9290    -0.0260     2.3300 o          1 URA      -0.597500
      7 C5           1.1590    -0.0230     1.2050 cc         1 URA      -0.327200
      8 C6           1.7390    -0.0180    -0.0070 cd         1 URA       0.052600
      9 HN1          1.4920    -0.0090    -2.0460 hn         1 URA       0.348500
     10 HN3         -1.9390    -0.0150     0.0850 hn         1 URA       0.343500
     11 H5           1.7540    -0.0290     2.1040 ha         1 URA       0.174000
     12 H6           2.8110    -0.0190    -0.1380 h4         1 URA       0.155000
@<TRIPOS>BOND
     1     1     2 1   
     2     1     8 1   
     3     1     9 1   
     4     2     3 2   
     5     2     4 1   
     6     4     5 1   
     7     4    10 1   
     8     5     6 2   
     9     5     7 1   
    10     7     8 2   
    11     7    11 1   
    12     8    12 1   
@<TRIPOS>SUBSTRUCTURE
     1 URA         1 TEMP              0 ****  ****    0 ROOT
