@<TRIPOS>MOLECULE
URA
   12    12     1     0     0
SMALL
No Charge or Current Charge


@<TRIPOS>ATOM
      1 N1           1.0140    -0.0120    -1.1450 ns         1 URA      -0.519600
      2 C2          -0.3520    -0.0100    -1.1600 c          1 URA       0.616000
      3 O2          -0.9960    -0.0040    -2.1900 o          1 URA      -0.551000
      4 N3          -0.9280    -0.0150     0.0700 ns         1 URA      -0.472500
      5 C4          -0.3080    -0.0220     1.2820 c          1 URA       0.588200
      6 O4          -0.9300    -0.0270     2.3290 o          1 URA      -0.522000
      7 C5           1.1550    -0.0240     1.1940 cc         1 URA      -0.377200
      8 C6           1.8110    -0.0180    -0.0140 cd         1 URA       0.002600
      9 HN1          1.4310    -0.0070    -2.0730 hn         1 URA       0.462000
     10 HN3         -1.9350    -0.0140     0.0870 hn         1 URA       0.343500
     11 H5           1.6840    -0.0290     2.1410 ha         1 URA       0.224000
     12 H6           2.8910    -0.0190    -0.1660 h4         1 URA       0.205000
@<TRIPOS>BOND
     1     1     2 1   
     2     1     8 1   
     3     1     9 1   
     4     2     3 2   
     5     2     4 1   
     6     4     5 1   
     7     4    10 1   
     8     5     6 2   
     9     5     7 1   
    10     7     8 2   
    11     7    11 1   
    12     8    12 1   
@<TRIPOS>SUBSTRUCTURE
     1 URA         1 TEMP              0 ****  ****    0 ROOT
