@<TRIPOS>MOLECULE
URB
   12    12     1     0     0
SMALL
abcg2


@<TRIPOS>ATOM
      1 O4          -0.0050    -2.1770     0.0180 o          1 URB      -0.496000
      2 C4          -0.5250    -1.0820     0.0130 c          1 URB       0.601200
      3 C5           0.1790     0.1880     0.0040 cc         1 URB      -0.256500
      4 BR           2.0430     0.1490    -0.0000 br         1 URB      -0.012700
      5 C6          -0.5130     1.3430    -0.0020 cd         1 URB       0.036600
      6 N1          -1.8690     1.3530     0.0020 ns         1 URB      -0.513600
      7 C2          -2.6370     0.2180     0.0130 c          1 URB       0.619000
      8 O2          -3.8480     0.2360     0.0180 o          1 URB      -0.540000
      9 N3          -1.9020    -0.9420     0.0170 ns         1 URB      -0.469500
     10 H6          -0.0410     2.3150    -0.0100 h4         1 URB       0.219000
     11 HN1         -2.3530     2.2400     0.0020 hn         1 URB       0.466000
     12 HN3         -2.4410    -1.8000     0.0260 hn         1 URB       0.347500
@<TRIPOS>BOND
     1     1     2 2   
     2     2     3 1   
     3     2     9 1   
     4     3     4 1   
     5     3     5 2   
     6     5     6 1   
     7     5    10 1   
     8     6     7 1   
     9     6    11 1   
    10     7     8 2   
    11     7     9 1   
    12     9    12 1   
@<TRIPOS>SUBSTRUCTURE
     1 URB         1 TEMP              0 ****  ****    0 ROOT
