@<TRIPOS>MOLECULE
URB
   12    12     1     0     0
SMALL
No Charge or Current Charge


@<TRIPOS>ATOM
      1 O4          -0.0280    -2.1890     0.0190 o          1 URB      -0.496000
      2 C4          -0.5490    -1.0860     0.0140 c          1 URB       0.601200
      3 C5           0.1900     0.1970     0.0040 cc         1 URB      -0.256500
      4 Br           2.0790     0.0930    -0.0020 br         1 URB      -0.012700
      5 C6          -0.4840     1.3960    -0.0010 cd         1 URB       0.036600
      6 N1          -1.8680     1.3450     0.0040 ns         1 URB      -0.513600
      7 C2          -2.6230     0.2080     0.0130 c          1 URB       0.619000
      8 O2          -3.8380     0.2280     0.0170 o          1 URB      -0.540000
      9 N3          -1.9050    -0.9420     0.0180 ns         1 URB      -0.469500
     10 H6          -0.0270     2.3860    -0.0090 h4         1 URB       0.219000
     11 HN1         -2.4190     2.2000     0.0000 hn         1 URB       0.466000
     12 HN3         -2.4390    -1.7950     0.0250 hn         1 URB       0.347500
@<TRIPOS>BOND
     1     1     2 2   
     2     2     3 1   
     3     2     9 1   
     4     3     4 1   
     5     3     5 2   
     6     5     6 1   
     7     5    10 1   
     8     6     7 1   
     9     6    11 1   
    10     7     8 2   
    11     7     9 1   
    12     9    12 1   
@<TRIPOS>SUBSTRUCTURE
     1 URB         1 TEMP              0 ****  ****    0 ROOT
