@<TRIPOS>MOLECULE
URC
   16    17     1     0     0
SMALL
No Charge or Current Charge


@<TRIPOS>ATOM
      1 N1           0.6320    -0.0140    -1.9970 ns         1 URC      -0.473500
      2 C2          -0.7310    -0.0410    -2.1180 c          1 URC       0.631000
      3 C6           1.3800     0.0100    -0.8510 c          1 URC       0.630200
      4 N3          -1.4190    -0.0440    -0.9340 ns         1 URC      -0.510600
      5 O11         -1.2920    -0.0610    -3.1970 o          1 URC      -0.539000
      6 C4          -0.8210    -0.0210     0.2920 cc         1 URC       0.168200
      7 C5           0.5310     0.0050     0.3630 cd         1 URC      -0.227600
      8 N9          -1.2650    -0.0180     1.5880 ns         1 URC      -0.512600
      9 O13          2.6000     0.0330    -0.8530 o          1 URC      -0.518000
     10 N7           0.8560     0.0230     1.7140 ns         1 URC      -0.467600
     11 C8          -0.2550     0.0090     2.5060 c          1 URC       0.588000
     12 O24         -0.3280     0.0190     3.7200 o          1 URC      -0.547000
     13 HN1          1.1500    -0.0120    -2.8600 hn         1 URC       0.350500
     14 HN3         -2.4290    -0.0630    -1.0190 hn         1 URC       0.470000
     15 HN9         -2.2350    -0.0340     1.8830 hn         1 URC       0.473000
     16 HN7          1.7870     0.0440     2.1270 hn         1 URC       0.487000
@<TRIPOS>BOND
     1     1     2 1   
     2     1     3 1   
     3     1    13 1   
     4     2     4 1   
     5     2     5 2   
     6     3     7 1   
     7     3     9 2   
     8     4     6 1   
     9     4    14 1   
    10     6     7 2   
    11     6     8 1   
    12     7    10 1   
    13     8    11 1   
    14     8    15 1   
    15    10    11 1   
    16    10    16 1   
    17    11    12 2   
@<TRIPOS>SUBSTRUCTURE
     1 URC         1 TEMP              0 ****  ****    0 ROOT
