@<TRIPOS>MOLECULE
URC
   16    17     1     0     0
SMALL
bcc


@<TRIPOS>ATOM
      1 N1           0.6180    -0.0130    -1.9600 ns         1 URC      -0.607500
      2 C2          -0.7510    -0.0440    -2.0910 c          1 URC       0.840500
      3 C6           1.3960     0.0130    -0.7990 c          1 URC       0.772700
      4 N3          -1.4410    -0.0430    -0.9010 ns         1 URC      -0.464100
      5 O11         -1.3100    -0.0690    -3.1670 o          1 URC      -0.614500
      6 C4          -0.7720    -0.0210     0.2750 cc         1 URC       0.168200
      7 C5           0.5830     0.0050     0.3640 cd         1 URC      -0.227600
      8 N9          -1.2830    -0.0180     1.5260 ns         1 URC      -0.466100
      9 O13          2.6120     0.0380    -0.8540 o          1 URC      -0.593500
     10 N7           0.8910     0.0250     1.7170 ns         1 URC      -0.421100
     11 C8          -0.2470     0.0090     2.4620 c          1 URC       0.797500
     12 O24         -0.3710     0.0170     3.6700 o          1 URC      -0.622500
     13 HN1          1.1280    -0.0100    -2.8340 hn         1 URC       0.350500
     14 HN3         -2.4500    -0.0590    -0.9350 hn         1 URC       0.356500
     15 HN9         -2.2600    -0.0330     1.7780 hn         1 URC       0.359500
     16 HN7          1.8180     0.0370     2.1120 hn         1 URC       0.373500
@<TRIPOS>BOND
     1     1     2 1   
     2     1     3 1   
     3     1    13 1   
     4     2     4 1   
     5     2     5 2   
     6     3     7 1   
     7     3     9 2   
     8     4     6 1   
     9     4    14 1   
    10     6     7 2   
    11     6     8 1   
    12     7    10 1   
    13     8    11 1   
    14     8    15 1   
    15    10    11 1   
    16    10    16 1   
    17    11    12 2   
@<TRIPOS>SUBSTRUCTURE
     1 URC         1 TEMP              0 ****  ****    0 ROOT
