@<TRIPOS>MOLECULE
URE
    8     7     1     0     0
SMALL
bcc


@<TRIPOS>ATOM
      1 C           -4.6550     0.6990    15.1880 c          1 URE       0.763100
      2 O           -4.3710     1.7880    15.6720 o          1 URE      -0.636100
      3 N1          -5.2000    -0.3110    15.9230 nt         1 URE      -0.669500
      4 N2          -4.4500     0.4070    13.8730 nt         1 URE      -0.669500
      5 HN11        -5.6560    -1.0810    15.4630 hn         1 URE       0.303000
      6 HN12        -5.5860    -0.0620    16.8180 hn         1 URE       0.303000
      7 HN21        -3.8370     1.0220    13.3640 hn         1 URE       0.303000
      8 HN22        -4.4480    -0.5490    13.5590 hn         1 URE       0.303000
@<TRIPOS>BOND
     1     1     2 2   
     2     1     3 1   
     3     1     4 1   
     4     3     5 1   
     5     3     6 1   
     6     4     7 1   
     7     4     8 1   
@<TRIPOS>SUBSTRUCTURE
     1 URE         1 TEMP              0 ****  ****    0 ROOT
