@<TRIPOS>MOLECULE
URE
    8     7     1     0     0
SMALL
No Charge or Current Charge


@<TRIPOS>ATOM
      1 C           -4.6560     0.6950    15.1860 c          1 URE       0.629100
      2 O           -4.3740     1.7720    15.6660 o          1 URE      -0.636100
      3 N1          -5.3100    -0.2440    15.8770 nt         1 URE      -0.602500
      4 N2          -4.3330     0.3690    13.9310 nt         1 URE      -0.602500
      5 HN11        -5.5300    -1.1300    15.4500 hn         1 URE       0.303000
      6 HN12        -5.5800    -0.0530    16.8300 hn         1 URE       0.303000
      7 HN21        -3.8380     1.0390    13.3610 hn         1 URE       0.303000
      8 HN22        -4.5810    -0.5350    13.5590 hn         1 URE       0.303000
@<TRIPOS>BOND
     1     1     2 2   
     2     1     3 1   
     3     1     4 1   
     4     3     5 1   
     5     3     6 1   
     6     4     7 1   
     7     4     8 1   
@<TRIPOS>SUBSTRUCTURE
     1 URE         1 TEMP              0 ****  ****    0 ROOT
