@<TRIPOS>MOLECULE
URF
   12    12     1     0     0
SMALL
bcc


@<TRIPOS>ATOM
      1 N1           1.2550     0.0060     1.1000 ns         1 URF      -0.465100
      2 C2          -0.0010     0.0110     1.6380 c          1 URF       0.827500
      3 N3          -1.0060     0.0160     0.6970 ns         1 URF      -0.604500
      4 C4          -0.8840     0.0150    -0.6800 c          1 URF       0.716700
      5 C5           0.4950     0.0090    -1.1180 cc         1 URF      -0.031700
      6 C6           1.5030     0.0050    -0.2400 cd         1 URF      -0.000400
      7 O2          -0.2180     0.0120     2.8310 o          1 URF      -0.616500
      8 O4          -1.8500     0.0190    -1.4150 o          1 URF      -0.568500
      9 F5           0.7100     0.0090    -2.4360 f          1 URF      -0.135500
     10 HN1          2.0340     0.0030     1.7420 hn         1 URF       0.354500
     11 HN3         -1.9510     0.0200     1.0640 hn         1 URF       0.348500
     12 H6           2.5410     0.0010    -0.5390 h4         1 URF       0.173000
@<TRIPOS>BOND
     1     1     2 1   
     2     1     6 1   
     3     1    10 1   
     4     2     3 1   
     5     2     7 2   
     6     3     4 1   
     7     3    11 1   
     8     4     5 1   
     9     4     8 2   
    10     5     6 2   
    11     5     9 1   
    12     6    12 1   
@<TRIPOS>SUBSTRUCTURE
     1 URF         1 TEMP              0 ****  ****    0 ROOT
