@<TRIPOS>MOLECULE
URF
   12    12     1     0     0
SMALL
No Charge or Current Charge


@<TRIPOS>ATOM
      1 N1           1.2490     0.0060     1.0920 ns         1 URF      -0.511600
      2 C2          -0.0120     0.0110     1.6250 c          1 URF       0.618000
      3 N3          -1.0120     0.0160     0.7040 ns         1 URF      -0.470500
      4 C4          -0.9020     0.0150    -0.6600 c          1 URF       0.574200
      5 C5           0.5010     0.0090    -1.1510 cc         1 URF      -0.031700
      6 C6           1.5560     0.0050    -0.2650 cd         1 URF      -0.050400
      7 O2          -0.2170     0.0120     2.8220 o          1 URF      -0.541000
      8 O4          -1.8930     0.0190    -1.3750 o          1 URF      -0.493000
      9 F5           0.7120     0.0090    -2.4790 f          1 URF      -0.135500
     10 HN1          1.9850     0.0030     1.7950 hn         1 URF       0.468000
     11 HN3         -1.9490     0.0200     1.0730 hn         1 URF       0.348500
     12 H6           2.6100     0.0010    -0.5370 h4         1 URF       0.223000
@<TRIPOS>BOND
     1     1     2 1   
     2     1     6 1   
     3     1    10 1   
     4     2     3 1   
     5     2     7 2   
     6     3     4 1   
     7     3    11 1   
     8     4     5 1   
     9     4     8 2   
    10     5     6 2   
    11     5     9 1   
    12     6    12 1   
@<TRIPOS>SUBSTRUCTURE
     1 URF         1 TEMP              0 ****  ****    0 ROOT
