@<TRIPOS>MOLECULE
URG
   82    82     1     0     0
SMALL
bcc


@<TRIPOS>ATOM
      1 CAA         10.5410     3.1740     1.2170 c3         1 URG       0.116300
      2 NAY          9.2200     2.6180     1.3600 ns         1 URG      -0.605900
      3 CBI          8.2710     2.8420     0.4250 c          1 URG       0.802100
      4 OAI          8.4500     3.5750    -0.5320 o          1 URG      -0.579100
      5 NBA          7.1040     2.1250     0.6500 ns         1 URG      -0.532400
      6 CBG          5.8460     2.4130     0.1270 c2         1 URG       0.672800
      7 NAE          5.5850     3.5450    -0.3950 n2         1 URG      -0.835100
      8 NAZ          5.0030     1.3360     0.2590 nu         1 URG      -0.894200
      9 CAU          3.6950     1.3310    -0.3570 c3         1 URG       0.199800
     10 CAT          2.8320     0.2080     0.2010 c3         1 URG      -0.085400
     11 CAV          1.4030     0.3260    -0.3600 c3         1 URG      -0.077400
     12 CBP          0.4580    -0.6870     0.3150 c3         1 URG       0.035700
     13 NBC          0.9220    -2.0460     0.3500 ns         1 URG      -0.540900
     14 C            1.3860    -2.7690    -0.6890 c          1 URG       0.669100
     15 O            1.8340    -2.2960    -1.7200 o          1 URG      -0.605100
     16 CA           1.3530    -4.2900    -0.4710 c3         1 URG       0.022700
     17 CB          -0.0240    -4.7920    -0.9140 c3         1 URG      -0.111100
     18 N            2.4440    -4.8620    -1.2010 ns         1 URG      -0.550900
     19 CBE          2.9290    -6.0940    -0.9490 c          1 URG       0.663100
     20 CAB          4.0010    -6.5690    -1.9030 c3         1 URG      -0.176100
     21 OAF          2.6350    -6.7220     0.0590 o          1 URG      -0.621100
     22 CBL         -0.9600    -0.6370    -0.2680 c          1 URG       0.653100
     23 OAL         -1.2870    -1.4580    -1.1090 o          1 URG      -0.613100
     24 NBR         -1.8130     0.2850     0.2340 n          1 URG      -0.429800
     25 CAD         -1.4120     1.3220     1.1810 c3         1 URG       0.068300
     26 CBQ         -3.2180     0.1870    -0.0530 c3         1 URG       0.006700
     27 CBK         -3.7530     1.4780    -0.6640 c          1 URG       0.653100
     28 OAK         -3.2000     1.9400    -1.6550 o          1 URG      -0.623100
     29 NBD         -4.7690     2.0850    -0.0450 ns         1 URG      -0.481900
     30 CBO         -5.2400     3.3970    -0.4100 c3         1 URG      -0.023300
     31 CBH         -4.2030     4.5140    -0.0890 c          1 URG       0.929600
     32 OAN         -4.3460     5.5680    -0.7400 o          1 URG      -0.859800
     33 OAH         -3.3900     4.2950     0.8270 o          1 URG      -0.859800
     34 CAW         -6.5740     3.6820     0.2460 c3         1 URG      -0.202400
     35 CBF         -7.7210     2.7480    -0.1880 c          1 URG       0.916600
     36 OAM         -7.7680     2.4460    -1.3960 o          1 URG      -0.866800
     37 OAG         -8.5070     2.3630     0.7040 o          1 URG      -0.866800
     38 CAX         -4.0180    -0.4090     1.1370 c3         1 URG      -0.067100
     39 CBM         -3.4520    -1.7280     1.5580 ca         1 URG      -0.043300
     40 CAR         -2.4450    -1.8130     2.5160 ca         1 URG      -0.121500
     41 CAP         -1.9110    -3.0440     2.8880 ca         1 URG      -0.142000
     42 CAO         -2.2330    -4.1820     2.1620 ca         1 URG      -0.156000
     43 CAQ         -3.2540    -4.1170     1.2160 ca         1 URG      -0.142000
     44 CAS         -3.8210    -2.8960     0.8880 ca         1 URG      -0.121500
     45 HAA         10.5500     4.2610     1.2960 h1         1 URG       0.033700
     46 HAAA        11.1520     2.7840     2.0300 h1         1 URG       0.033700
     47 HAAB        11.0280     2.8790     0.2860 h1         1 URG       0.033700
     48 HNAY         9.0420     1.9780     2.1150 hn         1 URG       0.308500
     49 HNBA         7.1270     1.4440     1.3930 hn         1 URG       0.304500
     50 HNAE         4.7000     3.5230    -0.8890 hn         1 URG       0.401400
     51 HNAZ         5.4730     0.4430     0.2820 hn         1 URG       0.400800
     52 HAU          3.2260     2.2850    -0.0920 h1         1 URG       0.047700
     53 HAUA         3.7270     1.2980    -1.4530 h1         1 URG       0.047700
     54 HAT          3.2660    -0.7520    -0.0770 hc         1 URG       0.046700
     55 HATA         2.7800     0.3160     1.2870 hc         1 URG       0.046700
     56 HAV          1.0620     1.3450    -0.1980 hc         1 URG       0.080200
     57 HAVA         1.4690     0.0700    -1.4170 hc         1 URG       0.080200
     58 HBP          0.4060    -0.3600     1.3590 h1         1 URG       0.057700
     59 HNBC         0.5970    -2.5690     1.1490 hn         1 URG       0.310500
     60 HA           1.4670    -4.4270     0.6070 h1         1 URG       0.072700
     61 HB          -0.0990    -5.8670    -0.7440 hc         1 URG       0.055367
     62 HBA         -0.8280    -4.2920    -0.3800 hc         1 URG       0.055367
     63 HBB         -0.1550    -4.6180    -1.9830 hc         1 URG       0.055367
     64 HN           2.6920    -4.4000    -2.0620 hn         1 URG       0.333500
     65 HAB          4.9250    -6.7300    -1.3510 hc         1 URG       0.055033
     66 HABA         3.6770    -7.4900    -2.3850 hc         1 URG       0.055033
     67 HABB         4.2080    -5.8380    -2.6840 hc         1 URG       0.055033
     68 HAD         -0.4850     1.8060     0.8930 h1         1 URG       0.054367
     69 HADA        -2.1960     2.0750     1.2340 h1         1 URG       0.054367
     70 HADB        -1.3190     0.9190     2.1920 h1         1 URG       0.054367
     71 HBQ         -3.3380    -0.5470    -0.8570 h1         1 URG       0.086700
     72 HNBD        -5.1180     1.7070     0.8210 hn         1 URG       0.295500
     73 HBO         -5.3930     3.4250    -1.4920 h1         1 URG       0.080700
     74 HAW         -6.4740     3.6760     1.3380 hc         1 URG       0.028700
     75 HAWA        -6.8730     4.7080     0.0060 hc         1 URG       0.028700
     76 HAX         -4.0280     0.3060     1.9650 hc         1 URG       0.075200
     77 HAXA        -5.0440    -0.5270     0.7810 hc         1 URG       0.075200
     78 HAR         -2.2130    -0.9350     3.1100 ha         1 URG       0.137000
     79 HAP         -1.1450    -3.0670     3.6530 ha         1 URG       0.115500
     80 HAO         -1.7890    -5.1330     2.4270 ha         1 URG       0.115000
     81 HAQ         -3.4580    -5.0090     0.6330 ha         1 URG       0.115500
     82 HAS         -4.5260    -2.8230     0.0670 ha         1 URG       0.137000
@<TRIPOS>BOND
     1     1     2 1   
     2     1    45 1   
     3     1    46 1   
     4     1    47 1   
     5     2     3 1   
     6     2    48 1   
     7     3     4 2   
     8     3     5 1   
     9     5     6 1   
    10     5    49 1   
    11     6     7 2   
    12     6     8 1   
    13     7    50 1   
    14     8     9 1   
    15     8    51 1   
    16     9    10 1   
    17     9    52 1   
    18     9    53 1   
    19    10    11 1   
    20    10    54 1   
    21    10    55 1   
    22    11    12 1   
    23    11    56 1   
    24    11    57 1   
    25    12    13 1   
    26    12    22 1   
    27    12    58 1   
    28    13    14 1   
    29    13    59 1   
    30    14    15 2   
    31    14    16 1   
    32    16    17 1   
    33    16    18 1   
    34    16    60 1   
    35    17    61 1   
    36    17    62 1   
    37    17    63 1   
    38    18    19 1   
    39    18    64 1   
    40    19    20 1   
    41    19    21 2   
    42    20    65 1   
    43    20    66 1   
    44    20    67 1   
    45    22    23 2   
    46    22    24 1   
    47    24    25 1   
    48    24    26 1   
    49    25    68 1   
    50    25    69 1   
    51    25    70 1   
    52    26    27 1   
    53    26    38 1   
    54    26    71 1   
    55    27    28 2   
    56    27    29 1   
    57    29    30 1   
    58    29    72 1   
    59    30    31 1   
    60    30    34 1   
    61    30    73 1   
    62    31    32 1   
    63    31    33 1   
    64    34    35 1   
    65    34    74 1   
    66    34    75 1   
    67    35    36 1   
    68    35    37 1   
    69    38    39 1   
    70    38    76 1   
    71    38    77 1   
    72    39    40 ar  
    73    39    44 ar  
    74    40    41 ar  
    75    40    78 1   
    76    41    42 ar  
    77    41    79 1   
    78    42    43 ar  
    79    42    80 1   
    80    43    44 ar  
    81    43    81 1   
    82    44    82 1   
@<TRIPOS>SUBSTRUCTURE
     1 URG         1 TEMP              0 ****  ****    0 ROOT
