@<TRIPOS>MOLECULE
URG
   82    82     1     0     0
SMALL
No Charge or Current Charge


@<TRIPOS>ATOM
      1 CAA         10.8020     2.1550     0.3200 c3         1 URG       0.116300
      2 NAY          9.3690     2.0640     0.6040 ns         1 URG      -0.538900
      3 CBI          8.3870     2.3500    -0.3080 c          1 URG       0.668100
      4 OAI          8.6280     2.7030    -1.4510 o          1 URG      -0.579100
      5 NBA          7.1380     2.1780     0.2020 ns         1 URG      -0.465400
      6 CBG          5.9560     2.4170    -0.4270 c2         1 URG       0.672800
      7 NAE          5.6520     3.4450    -1.0880 n2         1 URG      -0.835100
      8 NAZ          5.0010     1.5840     0.0540 nu         1 URG      -0.949400
      9 CAU          3.5810     1.5890    -0.3330 c3         1 URG       0.199800
     10 CAT          2.8270     0.4570     0.3930 c3         1 URG      -0.085400
     11 CAV          1.3180     0.4170     0.0450 c3         1 URG      -0.077400
     12 CBP          0.5260    -0.6920     0.8000 c3         1 URG       0.035700
     13 NBC          1.0760    -2.0620     0.6100 ns         1 URG      -0.473900
     14 C            1.3620    -2.6890    -0.5920 c          1 URG       0.602100
     15 O            1.2470    -2.1370    -1.6800 o          1 URG      -0.605100
     16 CA           1.8540    -4.1590    -0.4480 c3         1 URG       0.022700
     17 CB           0.7360    -5.0870     0.0890 c3         1 URG      -0.111100
     18 N            2.3740    -4.6600    -1.7390 ns         1 URG      -0.483900
     19 CBE          3.2250    -5.7300    -1.8950 c          1 URG       0.596100
     20 CAB          3.6010    -6.0420    -3.3380 c3         1 URG      -0.176100
     21 OAF          3.6510    -6.3780    -0.9490 o          1 URG      -0.621100
     22 CBL         -1.0160    -0.6500     0.5020 c          1 URG       0.586100
     23 OAL         -1.5350    -1.4850    -0.2330 o          1 URG      -0.613100
     24 NBR         -1.8010     0.4010     1.0610 n          1 URG      -0.362800
     25 CAD         -1.2930     1.2180     2.1960 c3         1 URG       0.068300
     26 CBQ         -3.2710     0.5030     0.7560 c3         1 URG       0.006700
     27 CBK         -3.7240     1.9100     0.2550 c          1 URG       0.586100
     28 OAK         -2.9620     2.8650     0.1540 o          1 URG      -0.623100
     29 NBD         -5.0670     2.0150    -0.0600 ns         1 URG      -0.414900
     30 CBO         -5.7390     3.2280    -0.5820 c3         1 URG      -0.023300
     31 CBH         -7.0500     3.4990     0.2220 c          1 URG       0.719000
     32 OAN         -7.1920     4.5970     0.7440 o          1 URG      -0.754500
     33 OAH         -7.8420     2.5790     0.3820 o          1 URG      -0.754500
     34 CAW         -6.0010     3.1350    -2.1130 c3         1 URG      -0.202400
     35 CBF         -4.6880     3.0740    -2.9110 c          1 URG       0.706000
     36 OAM         -4.1660     4.1280    -3.2400 o          1 URG      -0.761500
     37 OAG         -4.2310     1.9770    -3.1950 o          1 URG      -0.761500
     38 CAX         -4.1490    -0.0110     1.9400 c3         1 URG      -0.067100
     39 CBM         -3.7030    -1.3720     2.4670 ca         1 URG      -0.043300
     40 CAR         -3.0430    -1.4770     3.7080 ca         1 URG      -0.103500
     41 CAP         -2.6140    -2.7290     4.1810 ca         1 URG      -0.124000
     42 CAO         -2.8450    -3.8860     3.4180 ca         1 URG      -0.138000
     43 CAQ         -3.5090    -3.7900     2.1840 ca         1 URG      -0.124000
     44 CAS         -3.9380    -2.5380     1.7110 ca         1 URG      -0.103500
     45 HAA         11.0570     3.1830     0.0350 h1         1 URG       0.033700
     46 HAAA        11.3710     1.8750     1.2160 h1         1 URG       0.033700
     47 HAAB        11.0600     1.4730    -0.5000 h1         1 URG       0.033700
     48 HNAY         9.0790     1.7770     1.5310 hn         1 URG       0.308500
     49 HNBA         7.0770     1.8430     1.1470 hn         1 URG       0.304500
     50 HNAE         4.6470     3.3740    -1.2710 hn         1 URG       0.401400
     51 HNAZ         5.3540     0.7260     0.4680 hn         1 URG       0.456000
     52 HAU          3.1200     2.5520    -0.0720 h1         1 URG       0.047700
     53 HAUA         3.4840     1.4460    -1.4180 h1         1 URG       0.047700
     54 HAT          3.2890    -0.5020     0.1310 hc         1 URG       0.046700
     55 HATA         2.9400     0.5870     1.4770 hc         1 URG       0.046700
     56 HAV          0.8850     1.3970     0.2730 hc         1 URG       0.080200
     57 HAVA         1.1950     0.2940    -1.0370 hc         1 URG       0.080200
     58 HBP          0.6390    -0.4870     1.8700 h1         1 URG       0.057700
     59 HNBC         1.2120    -2.6280     1.4400 hn         1 URG       0.310500
     60 HA           2.6790    -4.1480     0.2770 h1         1 URG       0.072700
     61 HB           1.1030    -6.1130     0.2100 hc         1 URG       0.055367
     62 HBA          0.3740    -4.7440     1.0650 hc         1 URG       0.055367
     63 HBB         -0.1150    -5.1070    -0.6030 hc         1 URG       0.055367
     64 HN           2.0980    -4.1720    -2.5850 hn         1 URG       0.333500
     65 HAB          4.2820    -6.8960    -3.4230 hc         1 URG       0.055033
     66 HABA         2.6860    -6.1940    -3.9210 hc         1 URG       0.055033
     67 HABB         4.0230    -5.1410    -3.7990 hc         1 URG       0.055033
     68 HAD         -0.4870     1.8810     1.8640 h1         1 URG       0.054367
     69 HADA        -2.0930     1.8440     2.6100 h1         1 URG       0.054367
     70 HADB        -0.9230     0.5640     2.9950 h1         1 URG       0.054367
     71 HBQ         -3.4940    -0.1520    -0.0950 h1         1 URG       0.086700
     72 HNBD        -5.6340     1.1860     0.0670 hn         1 URG       0.295500
     73 HBO         -5.0880     4.0930    -0.4020 h1         1 URG       0.080700
     74 HAW         -6.5910     2.2240    -2.2690 hc         1 URG       0.028700
     75 HAWA        -6.5430     4.0560    -2.3630 hc         1 URG       0.028700
     76 HAX         -4.1380     0.7310     2.7480 hc         1 URG       0.075200
     77 HAXA        -5.1950    -0.0830     1.6200 hc         1 URG       0.075200
     78 HAR         -2.8560    -0.5870     4.3050 ha         1 URG       0.119000
     79 HAP         -2.1010    -2.8020     5.1370 ha         1 URG       0.097500
     80 HAO         -2.5120    -4.8550     3.7840 ha         1 URG       0.097000
     81 HAQ         -3.6890    -4.6840     1.5920 ha         1 URG       0.097500
     82 HAS         -4.4440    -2.4710     0.7510 ha         1 URG       0.119000
@<TRIPOS>BOND
     1     1     2 1   
     2     1    45 1   
     3     1    46 1   
     4     1    47 1   
     5     2     3 1   
     6     2    48 1   
     7     3     4 2   
     8     3     5 1   
     9     5     6 1   
    10     5    49 1   
    11     6     7 2   
    12     6     8 1   
    13     7    50 1   
    14     8     9 1   
    15     8    51 1   
    16     9    10 1   
    17     9    52 1   
    18     9    53 1   
    19    10    11 1   
    20    10    54 1   
    21    10    55 1   
    22    11    12 1   
    23    11    56 1   
    24    11    57 1   
    25    12    13 1   
    26    12    22 1   
    27    12    58 1   
    28    13    14 1   
    29    13    59 1   
    30    14    15 2   
    31    14    16 1   
    32    16    17 1   
    33    16    18 1   
    34    16    60 1   
    35    17    61 1   
    36    17    62 1   
    37    17    63 1   
    38    18    19 1   
    39    18    64 1   
    40    19    20 1   
    41    19    21 2   
    42    20    65 1   
    43    20    66 1   
    44    20    67 1   
    45    22    23 2   
    46    22    24 1   
    47    24    25 1   
    48    24    26 1   
    49    25    68 1   
    50    25    69 1   
    51    25    70 1   
    52    26    27 1   
    53    26    38 1   
    54    26    71 1   
    55    27    28 2   
    56    27    29 1   
    57    29    30 1   
    58    29    72 1   
    59    30    31 1   
    60    30    34 1   
    61    30    73 1   
    62    31    32 1   
    63    31    33 1   
    64    34    35 1   
    65    34    74 1   
    66    34    75 1   
    67    35    36 1   
    68    35    37 1   
    69    38    39 1   
    70    38    76 1   
    71    38    77 1   
    72    39    40 ar  
    73    39    44 ar  
    74    40    41 ar  
    75    40    78 1   
    76    41    42 ar  
    77    41    79 1   
    78    42    43 ar  
    79    42    80 1   
    80    43    44 ar  
    81    43    81 1   
    82    44    82 1   
@<TRIPOS>SUBSTRUCTURE
     1 URG         1 TEMP              0 ****  ****    0 ROOT
