@<TRIPOS>MOLECULE
URH
   46    48     1     0     0
SMALL
No Charge or Current Charge


@<TRIPOS>ATOM
      1 N1          -6.4330    -0.3030    15.8550 n8         1 URH      -1.012100
      2 C2          -4.2910     2.4700    15.8190 ca         1 URH      -0.018500
      3 O2          -5.7850     0.8040    17.9200 o          1 URH      -0.540500
      4 C4          -4.3070     4.1400    14.0190 ca         1 URH      -0.098600
      5 C5          -5.6970     3.9250    13.8740 ca         1 URH      -0.096500
      6 C6          -6.3770     3.0010    14.6850 ca         1 URH      -0.018500
      7 S1          -6.5430     1.0860    16.7030 sy         1 URH       1.127600
      8 O1          -7.9790     1.3590    16.7240 o          1 URH      -0.540500
      9 C1          -5.6770     2.2700    15.6640 ca         1 URH      -0.251500
     10 C3          -3.6130     3.3960    15.0070 ca         1 URH      -0.096500
     11 O3          -4.2150     5.7900    12.2740 o          1 URH      -0.579100
     12 N2          -2.2530     5.3110    13.3090 ns         1 URH      -0.496900
     13 C8          -1.4160     6.2580    12.5690 c3         1 URH       0.144300
     14 C9          -1.2590     7.5690    13.3270 ca         1 URH      -0.082300
     15 C10         -2.1790     8.6150    13.1360 ca         1 URH      -0.113000
     16 C11         -2.0390     9.8240    13.8380 ca         1 URH      -0.062500
     17 C12         -0.9670    10.0100    14.7380 ca         1 URH      -0.165600
     18 C13         -0.0570     8.9490    14.9420 ca         1 URH      -0.062500
     19 C14         -0.2010     7.7410    14.2380 ca         1 URH      -0.113000
     20 C15         -0.8390    11.3110    15.4980 c          1 URH       0.593300
     21 O4          -1.8390    11.9540    15.8010 o          1 URH      -0.514100
     22 C16          0.5360    11.8120    15.8810 ca         1 URH      -0.168600
     23 C17          1.6600    11.5690    15.0590 ca         1 URH      -0.067500
     24 C18          2.9280    12.0550    15.4230 ca         1 URH      -0.122000
     25 C19          3.0860    12.7970    16.6050 ca         1 URH      -0.087000
     26 C20          1.9730    13.0590    17.4190 ca         1 URH      -0.122000
     27 C21          0.7040    12.5750    17.0580 ca         1 URH      -0.067500
     28 H1          -6.0590    -0.9230    16.5700 hn         1 URH       0.478000
     29 H2          -7.4120    -0.5770    15.8270 hn         1 URH       0.478000
     30 H3          -3.7340     1.9100    16.5690 ha         1 URH       0.141000
     31 H4          -6.2610     4.4780    13.1250 ha         1 URH       0.131000
     32 H5          -7.4480     2.8560    14.5470 ha         1 URH       0.141000
     33 H6          -2.5440     3.5200    15.1610 ha         1 URH       0.131000
     34 H7          -1.8180     4.7540    14.0310 hn         1 URH       0.316500
     35 H8          -1.8510     6.4480    11.5790 h1         1 URH       0.066200
     36 H9          -0.4290     5.8040    12.4110 h1         1 URH       0.066200
     37 H10         -3.0080     8.4910    12.4420 ha         1 URH       0.115000
     38 H11         -2.7620    10.6210    13.6760 ha         1 URH       0.127500
     39 H12          0.7590     9.0490    15.6560 ha         1 URH       0.127500
     40 H13          0.5100     6.9350    14.4070 ha         1 URH       0.115000
     41 H14          1.5550    11.0140    14.1280 ha         1 URH       0.124000
     42 H15          3.7870    11.8600    14.7850 ha         1 URH       0.117000
     43 H16          4.0680    13.1730    16.8850 ha         1 URH       0.115000
     44 H17          2.0930    13.6390    18.3320 ha         1 URH       0.117000
     45 H18         -0.1490    12.7870    17.7000 ha         1 URH       0.124000
     46 C7          -3.6100     5.1490    13.1230 c          1 URH       0.603700
@<TRIPOS>BOND
     1     1     7 1   
     2     1    28 1   
     3     1    29 1   
     4     2     9 ar  
     5     2    10 ar  
     6     2    30 1   
     7     3     7 2   
     8     4     5 ar  
     9     4    10 ar  
    10     4    46 1   
    11     5     6 ar  
    12     5    31 1   
    13     6     9 ar  
    14     6    32 1   
    15     7     8 2   
    16     7     9 1   
    17    10    33 1   
    18    11    46 2   
    19    12    13 1   
    20    12    34 1   
    21    12    46 1   
    22    13    14 1   
    23    13    35 1   
    24    13    36 1   
    25    14    15 ar  
    26    14    19 ar  
    27    15    16 ar  
    28    15    37 1   
    29    16    17 ar  
    30    16    38 1   
    31    17    18 ar  
    32    17    20 1   
    33    18    19 ar  
    34    18    39 1   
    35    19    40 1   
    36    20    21 2   
    37    20    22 1   
    38    22    23 ar  
    39    22    27 ar  
    40    23    24 ar  
    41    23    41 1   
    42    24    25 ar  
    43    24    42 1   
    44    25    26 ar  
    45    25    43 1   
    46    26    27 ar  
    47    26    44 1   
    48    27    45 1   
@<TRIPOS>SUBSTRUCTURE
     1 URH         1 TEMP              0 ****  ****    0 ROOT
