@<TRIPOS>MOLECULE
URH
   46    48     1     0     0
SMALL
bcc


@<TRIPOS>ATOM
      1 N1          -5.8140     0.2220    16.5110 n8         1 URH      -0.901700
      2 C2          -3.8370     2.3410    15.2420 ca         1 URH      -0.036500
      3 O2          -4.2110     1.2270    18.1220 o          1 URH      -0.611300
      4 C4          -4.0960     4.4340    14.0730 ca         1 URH      -0.098600
      5 C5          -5.2020     4.7300    14.8620 ca         1 URH      -0.114500
      6 C6          -5.6200     3.8540    15.8500 ca         1 URH      -0.036500
      7 S1          -5.3960     1.5770    17.3540 sy         1 URH       1.269200
      8 O1          -6.5210     2.1880    18.0480 o          1 URH      -0.611300
      9 C1          -4.9280     2.6690    16.0360 ca         1 URH      -0.251500
     10 C3          -3.4280     3.2240    14.2590 ca         1 URH      -0.114500
     11 O3          -4.4580     6.3280    12.6960 o          1 URH      -0.579100
     12 N2          -2.4100     5.3990    12.6250 ns         1 URH      -0.563900
     13 C8          -1.8490     6.4540    11.8160 c3         1 URH       0.144300
     14 C9          -1.5810     7.7210    12.5950 ca         1 URH      -0.082300
     15 C10         -1.7620     8.9660    11.9980 ca         1 URH      -0.131000
     16 C11         -1.4960    10.1310    12.6960 ca         1 URH      -0.080500
     17 C12         -1.0170    10.0770    14.0050 ca         1 URH      -0.165600
     18 C13         -0.8350     8.8310    14.6020 ca         1 URH      -0.080500
     19 C14         -1.1210     7.6680    13.9060 ca         1 URH      -0.131000
     20 C15         -0.7920    11.3400    14.7540 c          1 URH       0.593300
     21 O4          -1.4440    12.3340    14.5030 o          1 URH      -0.514100
     22 C16          0.2420    11.3700    15.8250 ca         1 URH      -0.168600
     23 C17          1.4420    10.6730    15.6980 ca         1 URH      -0.085500
     24 C18          2.4160    10.7750    16.6810 ca         1 URH      -0.140000
     25 C19          2.1880    11.5540    17.8070 ca         1 URH      -0.105000
     26 C20          0.9910    12.2480    17.9410 ca         1 URH      -0.140000
     27 C21          0.0290    12.1700    16.9480 ca         1 URH      -0.085500
     28 H1          -5.7550    -0.6140    17.0850 hn         1 URH       0.422800
     29 H2          -6.7240     0.2920    16.0680 hn         1 URH       0.422800
     30 H3          -3.3110     1.4050    15.3730 ha         1 URH       0.159000
     31 H4          -5.7360     5.6590    14.7170 ha         1 URH       0.149000
     32 H5          -6.4730     4.1050    16.4650 ha         1 URH       0.159000
     33 H6          -2.5890     2.9400    13.6380 ha         1 URH       0.149000
     34 H7          -1.7670     4.7470    13.0400 hn         1 URH       0.316500
     35 H8          -2.5070     6.6680    10.9730 h1         1 URH       0.066200
     36 H9          -0.9140     6.0790    11.3960 h1         1 URH       0.066200
     37 H10         -2.1270     9.0240    10.9790 ha         1 URH       0.133000
     38 H11         -1.6550    11.0890    12.2170 ha         1 URH       0.145500
     39 H12         -0.4930     8.7590    15.6270 ha         1 URH       0.145500
     40 H13         -0.9860     6.7150    14.4020 ha         1 URH       0.133000
     41 H14          1.6310    10.0650    14.8230 ha         1 URH       0.142000
     42 H15          3.3520    10.2430    16.5680 ha         1 URH       0.135000
     43 H16          2.9420    11.6230    18.5800 ha         1 URH       0.133000
     44 H17          0.8110    12.8540    18.8190 ha         1 URH       0.135000
     45 H18         -0.8990    12.7160    17.0520 ha         1 URH       0.142000
     46 C7          -3.6790     5.4640    13.0660 c          1 URH       0.670700
@<TRIPOS>BOND
     1     1     7 1   
     2     1    28 1   
     3     1    29 1   
     4     2     9 ar  
     5     2    10 ar  
     6     2    30 1   
     7     3     7 2   
     8     4     5 ar  
     9     4    10 ar  
    10     4    46 1   
    11     5     6 ar  
    12     5    31 1   
    13     6     9 ar  
    14     6    32 1   
    15     7     8 2   
    16     7     9 1   
    17    10    33 1   
    18    11    46 2   
    19    12    13 1   
    20    12    34 1   
    21    12    46 1   
    22    13    14 1   
    23    13    35 1   
    24    13    36 1   
    25    14    15 ar  
    26    14    19 ar  
    27    15    16 ar  
    28    15    37 1   
    29    16    17 ar  
    30    16    38 1   
    31    17    18 ar  
    32    17    20 1   
    33    18    19 ar  
    34    18    39 1   
    35    19    40 1   
    36    20    21 2   
    37    20    22 1   
    38    22    23 ar  
    39    22    27 ar  
    40    23    24 ar  
    41    23    41 1   
    42    24    25 ar  
    43    24    42 1   
    44    25    26 ar  
    45    25    43 1   
    46    26    27 ar  
    47    26    44 1   
    48    27    45 1   
@<TRIPOS>SUBSTRUCTURE
     1 URH         1 TEMP              0 ****  ****    0 ROOT
