@<TRIPOS>MOLECULE
URI
   29    30     1     0     0
SMALL
bcc


@<TRIPOS>ATOM
      1 N1          -0.2490     0.3830    -0.8920 n          1 URI      -0.378000
      2 C2           0.7100    -0.5540    -1.2380 c          1 URI       0.836500
      3 N3           1.0060    -0.6020    -2.5760 ns         1 URI      -0.605500
      4 C4           0.4700     0.1570    -3.6050 c          1 URI       0.734700
      5 C5          -0.5140     1.1090    -3.1550 cc         1 URI      -0.331200
      6 C6          -0.8150     1.1790    -1.8500 cd         1 URI       0.066600
      7 O2           1.2510    -1.2860    -0.4400 o          1 URI      -0.638500
      8 O4           0.8380    -0.0090    -4.7530 o          1 URI      -0.601500
      9 C1          -0.6350     0.5810     0.4990 c5         1 URI       0.320500
     10 C7          -1.2310    -0.6300     1.2150 c5         1 URI       0.111100
     11 C3          -0.9740    -0.2450     2.6740 c5         1 URI       0.077100
     12 C8           0.3930     0.4390     2.5720 c5         1 URI       0.113100
     13 O1          -2.5670    -0.7680     0.8380 oh         1 URI      -0.565800
     14 O3          -1.9880     0.6430     3.0690 oh         1 URI      -0.572800
     15 O6           0.4590     0.9970     1.2560 os         1 URI      -0.376600
     16 C9           1.5490    -0.5030     2.8340 c3         1 URI       0.128400
     17 O5           2.7510     0.2140     2.6830 oh         1 URI      -0.579800
     18 H3           1.7040    -1.2890    -2.8320 hn         1 URI       0.340500
     19 H5          -0.9950     1.7640    -3.8650 ha         1 URI       0.174000
     20 H6          -1.5430     1.8910    -1.4860 h4         1 URI       0.160000
     21 H1          -1.4020     1.3630     0.4610 h2         1 URI       0.084700
     22 H2          -0.6550    -1.5310     0.9910 h1         1 URI       0.075700
     23 H7          -0.9360    -1.1250     3.3290 h1         1 URI       0.054700
     24 H4           0.4560     1.2650     3.2910 h1         1 URI       0.078700
     25 HO2         -2.8860    -1.6230     1.1430 ho         1 URI       0.417000
     26 HO3         -1.7950     0.9440     3.9620 ho         1 URI       0.409000
     27 H5'1         1.5050    -1.3650     2.1590 h1         1 URI       0.030200
     28 H5'2         1.4310    -0.8860     3.8570 h1         1 URI       0.030200
     29 HO5          3.4810    -0.4020     2.7850 ho         1 URI       0.408000
@<TRIPOS>BOND
     1     1     2 1   
     2     1     6 1   
     3     1     9 1   
     4     2     3 1   
     5     2     7 2   
     6     3     4 1   
     7     3    18 1   
     8     4     5 1   
     9     4     8 2   
    10     5     6 2   
    11     5    19 1   
    12     6    20 1   
    13     9    10 1   
    14     9    15 1   
    15     9    21 1   
    16    10    11 1   
    17    10    13 1   
    18    10    22 1   
    19    11    12 1   
    20    11    14 1   
    21    11    23 1   
    22    12    15 1   
    23    12    16 1   
    24    12    24 1   
    25    13    25 1   
    26    14    26 1   
    27    16    17 1   
    28    16    27 1   
    29    16    28 1   
    30    17    29 1   
@<TRIPOS>SUBSTRUCTURE
     1 URI         1 TEMP              0 ****  ****    0 ROOT
