@<TRIPOS>MOLECULE
URI
   29    30     1     0     0
SMALL
No Charge or Current Charge


@<TRIPOS>ATOM
      1 N1          -0.2300     0.4280    -0.9380 n          1 URI      -0.311000
      2 C2           0.9230    -0.2910    -1.3320 c          1 URI       0.627000
      3 N3           1.1490    -0.3700    -2.6720 ns         1 URI      -0.471500
      4 C4           0.4040     0.1400    -3.6830 c          1 URI       0.592200
      5 C5          -0.7840     0.8510    -3.2270 cc         1 URI      -0.381200
      6 C6          -1.0830     0.9840    -1.8910 cd         1 URI       0.016600
      7 O2           1.6840    -0.8510    -0.5610 o          1 URI      -0.563000
      8 O4           0.7120     0.0010    -4.8530 o          1 URI      -0.526000
      9 C1          -0.5320     0.6530     0.5040 c5         1 URI       0.343700
     10 C7          -1.1310    -0.6560     1.1090 c5         1 URI       0.134300
     11 C3          -1.0000    -0.2750     2.6110 c5         1 URI       0.100300
     12 C8           0.4330     0.3790     2.6290 c5         1 URI       0.136300
     13 O1          -2.5070    -0.9020     0.7750 oh         1 URI      -0.688000
     14 O3          -2.0440     0.6480     2.9840 oh         1 URI      -0.695000
     15 O6           0.6240     0.9660     1.3080 os         1 URI      -0.423000
     16 C9           1.5740    -0.6440     2.9130 c3         1 URI       0.151600
     17 O5           2.8280     0.0220     3.1530 oh         1 URI      -0.702000
     18 H3           1.9730    -0.8800    -2.9470 hn         1 URI       0.340500
     19 H5          -1.4130     1.2690    -4.0060 ha         1 URI       0.224000
     20 H6          -1.9550     1.5030    -1.4940 h4         1 URI       0.210000
     21 H1          -1.2550     1.4750     0.5740 h2         1 URI       0.084700
     22 H2          -0.5070    -1.5270     0.8640 h1         1 URI       0.075700
     23 H7          -1.0400    -1.1690     3.2490 h1         1 URI       0.054700
     24 H4           0.4890     1.1720     3.3860 h1         1 URI       0.078700
     25 HO2         -3.0070    -0.3810     1.4530 ho         1 URI       0.516000
     26 HO3         -1.9620     0.8190     3.9530 ho         1 URI       0.508000
     27 H5'1         1.6590    -1.3390     2.0670 h1         1 URI       0.030200
     28 H5'2         1.2970    -1.2360     3.7960 h1         1 URI       0.030200
     29 HO5          3.5210    -0.6770     3.2020 ho         1 URI       0.507000
@<TRIPOS>BOND
     1     1     2 1   
     2     1     6 1   
     3     1     9 1   
     4     2     3 1   
     5     2     7 2   
     6     3     4 1   
     7     3    18 1   
     8     4     5 1   
     9     4     8 2   
    10     5     6 2   
    11     5    19 1   
    12     6    20 1   
    13     9    10 1   
    14     9    15 1   
    15     9    21 1   
    16    10    11 1   
    17    10    13 1   
    18    10    22 1   
    19    11    12 1   
    20    11    14 1   
    21    11    23 1   
    22    12    15 1   
    23    12    16 1   
    24    12    24 1   
    25    13    25 1   
    26    14    26 1   
    27    16    17 1   
    28    16    27 1   
    29    16    28 1   
    30    17    29 1   
@<TRIPOS>SUBSTRUCTURE
     1 URI         1 TEMP              0 ****  ****    0 ROOT
