@<TRIPOS>MOLECULE
URJ
   52    56     1     0     0
SMALL
No Charge or Current Charge


@<TRIPOS>ATOM
      1 C2          76.1590    17.2710    31.6870 ca         1 URJ       0.184000
      2 C3          74.8720    17.4760    32.2020 ca         1 URJ      -0.159500
      3 C4          73.9430    16.4210    32.2100 ca         1 URJ      -0.046500
      4 C5          74.2920    15.1460    31.7020 ca         1 URJ      -0.161600
      5 C6          75.5990    14.9570    31.1850 ca         1 URJ      -0.046500
      6 C7          76.5230    16.0170    31.1790 ca         1 URJ      -0.159500
      7 C8          73.2630    14.0340    31.7280 c          1 URJ       0.621700
      8 O9          72.1390    14.2010    32.1850 o          1 URJ      -0.589100
      9 N10         73.6540    12.8140    31.2100 ns         1 URJ      -0.452900
     10 C11         72.8080    11.6440    31.1110 cx         1 URJ      -0.007900
     11 C12         73.4760    10.3170    31.4040 cx         1 URJ      -0.107400
     12 C15         70.4490    12.1190    30.2740 ca         1 URJ      -0.139000
     13 C16         69.5210    12.2220    29.2220 ca         1 URJ      -0.095000
     14 C17         69.9420    11.9470    27.9030 ca         1 URJ       0.242000
     15 C18         71.3210    11.6090    27.7310 ca         1 URJ       0.340300
     16 C21         70.7860    11.0570    25.3000 c6         1 URJ      -0.102400
     17 C24         67.6380    12.0740    26.9220 ca         1 URJ       0.388900
     18 F1          77.0500    18.2860    31.6790 f          1 URJ      -0.180000
     19 C13         72.5030    10.9020    32.3960 cx         1 URJ      -0.107400
     20 C14         71.7810    11.7580    30.0000 ca         1 URJ       0.367300
     21 N19         72.2190    11.5130    28.7430 nb         1 URJ      -0.675000
     22 C20         71.8950    11.3570    26.3370 c6         1 URJ      -0.127700
     23 C22         69.6170    12.0640    25.4120 c6         1 URJ       0.223800
     24 N23         69.0420    12.0470    26.7900 nh         1 URJ      -0.798100
     25 C25         66.9590    11.1660    27.7480 ca         1 URJ      -0.279000
     26 C26         65.5600    11.2520    27.8020 ca         1 URJ       0.129900
     27 N27         64.8850    12.1680    27.0810 nb         1 URJ      -0.207000
     28 C28         65.6240    12.9930    26.3080 ca         1 URJ       0.170300
     29 C29         64.8700    14.0180    25.4800 c3         1 URJ      -0.134400
     30 N30         66.9680    12.9840    26.1890 nb         1 URJ      -0.258000
     31 H1          74.5960    18.4510    32.5940 ha         1 URJ       0.135500
     32 H2          72.9480    16.5980    32.6150 ha         1 URJ       0.129500
     33 H3          75.9180    13.9980    30.7840 ha         1 URJ       0.129500
     34 H4          77.5240    15.8670    30.7820 ha         1 URJ       0.135500
     35 H5          74.5900    12.7680    30.8320 hn         1 URJ       0.314500
     36 H6          73.1540     9.4500    30.8320 hc         1 URJ       0.082950
     37 H7          74.5310    10.3200    31.6680 hc         1 URJ       0.082950
     38 H8          70.1430    12.3300    31.2950 ha         1 URJ       0.126000
     39 H9          68.5010    12.5260    29.4360 ha         1 URJ       0.131000
     40 H10         70.4000    10.0400    25.4590 hc         1 URJ       0.056200
     41 H11         71.2030    11.0770    24.2840 hc         1 URJ       0.056200
     42 H12         72.9040    11.3020    33.3240 hc         1 URJ       0.082950
     43 H13         71.5330    10.4200    32.4920 hc         1 URJ       0.082950
     44 H14         72.6110    10.5240    26.3630 hc         1 URJ       0.066200
     45 H15         72.4600    12.2450    26.0230 hc         1 URJ       0.066200
     46 H16         69.9690    13.0750    25.1560 h1         1 URJ       0.074700
     47 H17         68.8560    11.7870    24.6660 h1         1 URJ       0.074700
     48 H18         67.4940    10.4130    28.3180 ha         1 URJ       0.137000
     49 H19         64.9710    10.5780    28.4210 h4         1 URJ       0.021100
     50 H20         65.4540    14.9380    25.3530 hc         1 URJ       0.059700
     51 H21         64.6460    13.6230    24.4820 hc         1 URJ       0.059700
     52 H22         63.9200    14.2960    25.9520 hc         1 URJ       0.059700
@<TRIPOS>BOND
     1     1     2 ar  
     2     1     6 ar  
     3     1    18 1   
     4     2     3 ar  
     5     2    31 1   
     6     3     4 ar  
     7     3    32 1   
     8     4     5 ar  
     9     4     7 1   
    10     5     6 ar  
    11     5    33 1   
    12     6    34 1   
    13     7     8 2   
    14     7     9 1   
    15     9    10 1   
    16     9    35 1   
    17    10    11 1   
    18    10    19 1   
    19    10    20 1   
    20    11    19 1   
    21    11    36 1   
    22    11    37 1   
    23    12    13 ar  
    24    12    20 ar  
    25    12    38 1   
    26    13    14 ar  
    27    13    39 1   
    28    14    15 ar  
    29    14    24 1   
    30    15    21 ar  
    31    15    22 1   
    32    16    22 1   
    33    16    23 1   
    34    16    40 1   
    35    16    41 1   
    36    17    24 1   
    37    17    25 ar  
    38    17    30 ar  
    39    19    42 1   
    40    19    43 1   
    41    20    21 ar  
    42    22    44 1   
    43    22    45 1   
    44    23    24 1   
    45    23    46 1   
    46    23    47 1   
    47    25    26 ar  
    48    25    48 1   
    49    26    27 ar  
    50    26    49 1   
    51    27    28 ar  
    52    28    29 1   
    53    28    30 ar  
    54    29    50 1   
    55    29    51 1   
    56    29    52 1   
@<TRIPOS>SUBSTRUCTURE
     1 URJ         1 TEMP              0 ****  ****    0 ROOT
