@<TRIPOS>MOLECULE
URJ
   52    56     1     0     0
SMALL
abcg2


@<TRIPOS>ATOM
      1 C2          77.0760    15.6070    29.8480 ca         1 URJ       0.184000
      2 C3          76.4790    16.3000    30.8870 ca         1 URJ      -0.159500
      3 C4          75.3450    15.7560    31.4710 ca         1 URJ      -0.046500
      4 C5          74.8320    14.5330    31.0360 ca         1 URJ      -0.161600
      5 C6          75.4670    13.8600    29.9900 ca         1 URJ      -0.046500
      6 C7          76.5950    14.3970    29.3830 ca         1 URJ      -0.159500
      7 C8          73.5640    14.0340    31.6540 c          1 URJ       0.621700
      8 O9          72.7250    14.8170    32.0970 o          1 URJ      -0.589100
      9 N10         73.4040    12.6890    31.6990 ns         1 URJ      -0.452900
     10 C11         72.1180    12.0930    31.9050 cx         1 URJ      -0.007900
     11 C12         72.1180    10.7870    32.6710 cx         1 URJ      -0.107400
     12 C15         69.8120    11.8980    30.8540 ca         1 URJ      -0.139000
     13 C16         68.9980    12.0730    29.7540 ca         1 URJ      -0.095000
     14 C17         69.5290    12.5890    28.5690 ca         1 URJ       0.242000
     15 C18         70.8770    12.9670    28.5710 ca         1 URJ       0.340300
     16 C21         70.6110    13.7000    26.1600 c6         1 URJ      -0.102400
     17 C24         67.7990    11.9270    26.9660 ca         1 URJ       0.388900
     18 F1          78.1690    16.1430    29.2550 f          1 URJ      -0.180000
     19 C13         71.6180    12.0330    33.3290 cx         1 URJ      -0.107400
     20 C14         71.1580    12.2690    30.7650 ca         1 URJ       0.367300
     21 N19         71.6500    12.7990    29.6480 nb         1 URJ      -0.675000
     22 C20         71.5190    13.6430    27.3870 c6         1 URJ      -0.127700
     23 C22         69.1680    13.9440    26.5830 c6         1 URJ       0.223800
     24 N23         68.7280    12.8260    27.4300 nh         1 URJ      -0.798100
     25 C25         67.7180    10.5960    27.4240 ca         1 URJ      -0.279000
     26 C26         66.7400     9.8070    26.8700 ca         1 URJ       0.129900
     27 N27         65.8790    10.2380    25.9310 nb         1 URJ      -0.207000
     28 C28         66.0420    11.5040    25.5390 ca         1 URJ       0.170300
     29 C29         65.1390    12.0250    24.4600 c3         1 URJ      -0.134400
     30 N30         66.9540    12.3540    26.0150 nb         1 URJ      -0.258000
     31 H1          76.8920    17.2430    31.2190 ha         1 URJ       0.135500
     32 H2          74.8450    16.2830    32.2730 ha         1 URJ       0.129500
     33 H3          75.0680    12.9300    29.6070 ha         1 URJ       0.129500
     34 H4          77.0860    13.8970    28.5600 ha         1 URJ       0.135500
     35 H5          74.1040    12.1140    31.2580 hn         1 URJ       0.314500
     36 H6          71.3980    10.0440    32.3580 hc         1 URJ       0.082950
     37 H7          73.0840    10.4000    32.9680 hc         1 URJ       0.082950
     38 H8          69.3970    11.4960    31.7670 ha         1 URJ       0.126000
     39 H9          67.9480    11.8230    29.8140 ha         1 URJ       0.131000
     40 H10         70.6540    12.7580    25.6080 hc         1 URJ       0.056200
     41 H11         70.9380    14.4910    25.4830 hc         1 URJ       0.056200
     42 H12         72.2490    12.5070    34.0660 hc         1 URJ       0.082950
     43 H13         70.5560    12.1460    33.4940 hc         1 URJ       0.082950
     44 H14         72.4600    13.1390    27.1600 hc         1 URJ       0.066200
     45 H15         71.7850    14.6580    27.7010 hc         1 URJ       0.066200
     46 H16         69.0830    14.8710    27.1560 h1         1 URJ       0.074700
     47 H17         68.5000    14.0040    25.7320 h1         1 URJ       0.074700
     48 H18         68.4000    10.1920    28.1530 ha         1 URJ       0.137000
     49 H19         66.6400     8.7730    27.1790 h4         1 URJ       0.021100
     50 H20         64.7690    13.0180    24.7180 hc         1 URJ       0.059700
     51 H21         65.6980    12.1170    23.5250 hc         1 URJ       0.059700
     52 H22         64.3020    11.3490    24.2990 hc         1 URJ       0.059700
@<TRIPOS>BOND
     1     1     2 ar  
     2     1     6 ar  
     3     1    18 1   
     4     2     3 ar  
     5     2    31 1   
     6     3     4 ar  
     7     3    32 1   
     8     4     5 ar  
     9     4     7 1   
    10     5     6 ar  
    11     5    33 1   
    12     6    34 1   
    13     7     8 2   
    14     7     9 1   
    15     9    10 1   
    16     9    35 1   
    17    10    11 1   
    18    10    19 1   
    19    10    20 1   
    20    11    19 1   
    21    11    36 1   
    22    11    37 1   
    23    12    13 ar  
    24    12    20 ar  
    25    12    38 1   
    26    13    14 ar  
    27    13    39 1   
    28    14    15 ar  
    29    14    24 1   
    30    15    21 ar  
    31    15    22 1   
    32    16    22 1   
    33    16    23 1   
    34    16    40 1   
    35    16    41 1   
    36    17    24 1   
    37    17    25 ar  
    38    17    30 ar  
    39    19    42 1   
    40    19    43 1   
    41    20    21 ar  
    42    22    44 1   
    43    22    45 1   
    44    23    24 1   
    45    23    46 1   
    46    23    47 1   
    47    25    26 ar  
    48    25    48 1   
    49    26    27 ar  
    50    26    49 1   
    51    27    28 ar  
    52    28    29 1   
    53    28    30 ar  
    54    29    50 1   
    55    29    51 1   
    56    29    52 1   
@<TRIPOS>SUBSTRUCTURE
     1 URJ         1 TEMP              0 ****  ****    0 ROOT
