@<TRIPOS>MOLECULE
URK
   49    50     1     0     0
SMALL
No Charge or Current Charge


@<TRIPOS>ATOM
      1 C1          20.0590     1.6980   -25.6040 c2         1 URK      -0.227000
      2 C2          20.5500     2.7080   -24.8410 ce         1 URK      -0.267200
      3 C3          21.0700     4.0110   -25.3500 c          1 URK       0.601300
      4 O1          21.0110     4.0970   -26.7170 os         1 URK      -0.422100
      5 C4          21.4250     5.3350   -27.3500 c3         1 URK       0.133600
      6 C5          21.5290     5.0820   -28.8530 ca         1 URK      -0.051300
      7 C6          22.7670     5.2000   -29.5140 ca         1 URK      -0.098500
      8 C7          22.8560     5.0030   -30.9030 ca         1 URK      -0.050000
      9 C8          21.7020     4.6850   -31.6570 ca         1 URK      -0.171200
     10 N1          21.7940     4.4800   -33.1400 no         1 URK       0.693200
     11 O2          22.9030     4.5890   -33.6790 o          1 URK      -0.395500
     12 O3          20.7550     4.2140   -33.7590 o          1 URK      -0.395500
     13 C9          20.4610     4.5630   -30.9900 ca         1 URK      -0.050000
     14 C10         20.3800     4.7580   -29.6010 ca         1 URK      -0.098500
     15 C11         20.4420     6.5150   -27.0830 c          1 URK       0.589100
     16 N2          20.8810     7.7390   -27.5470 ns         1 URK      -0.498900
     17 C12         20.0430     8.9380   -27.6230 c3         1 URK       0.155300
     18 C13         19.0470     8.8790   -28.7890 ca         1 URK      -0.078300
     19 C14         17.7350     9.4030   -28.6510 ca         1 URK       0.078100
     20 O4          17.4300     9.9800   -27.4190 os         1 URK      -0.354100
     21 C15         16.1610    10.5600   -27.0670 c3         1 URK       0.142900
     22 C16         16.8250     9.3200   -29.7560 ca         1 URK       0.127100
     23 O5          15.5350     9.8170   -29.6530 os         1 URK      -0.326100
     24 C17         14.5800     9.7610   -30.7280 c3         1 URK       0.145900
     25 C18         17.2570     8.7230   -30.9640 ca         1 URK      -0.189000
     26 C19         18.5590     8.2230   -31.0890 ca         1 URK      -0.075000
     27 C20         19.4480     8.3050   -30.0130 ca         1 URK      -0.135000
     28 O6          19.3490     6.3850   -26.5430 o          1 URK      -0.573100
     29 O7          21.5070     4.8880   -24.6190 o          1 URK      -0.476000
     30 H1          20.0040     1.7600   -26.6930 ha         1 URK       0.176000
     31 H2          19.6950     0.7710   -25.1580 ha         1 URK       0.176000
     32 H4          20.5890     2.6080   -23.7570 ha         1 URK       0.206000
     33 H6          22.4090     5.6430   -26.9740 h1         1 URK       0.074700
     34 H7          23.6660     5.4480   -28.9530 ha         1 URK       0.138000
     35 H8          23.8280     5.1020   -31.3850 ha         1 URK       0.154500
     36 H9          19.5530     4.3180   -31.5400 ha         1 URK       0.154500
     37 H10         19.4160     4.6630   -29.1050 ha         1 URK       0.138000
     38 H11         21.7960     7.7660   -27.9830 hn         1 URK       0.318500
     39 H12         20.6920     9.8140   -27.7510 h1         1 URK       0.070200
     40 H13         19.5210     9.0510   -26.6640 h1         1 URK       0.070200
     41 H14         16.1920    10.9370   -26.0370 h1         1 URK       0.040700
     42 H15         15.9180    11.4050   -27.7240 h1         1 URK       0.040700
     43 H16         15.3580     9.8140   -27.1250 h1         1 URK       0.040700
     44 H17         13.6310    10.2140   -30.4150 h1         1 URK       0.041367
     45 H18         14.9450    10.3110   -31.6040 h1         1 URK       0.041367
     46 H19         14.3800     8.7220   -31.0180 h1         1 URK       0.041367
     47 H20         16.5990     8.6400   -31.8230 ha         1 URK       0.120000
     48 H21         18.8820     7.7710   -32.0260 ha         1 URK       0.114000
     49 H22         20.4560     7.9150   -30.1380 ha         1 URK       0.109000
@<TRIPOS>BOND
     1     1     2 2   
     2     1    30 1   
     3     1    31 1   
     4     2     3 1   
     5     2    32 1   
     6     3     4 1   
     7     3    29 2   
     8     4     5 1   
     9     5     6 1   
    10     5    15 1   
    11     5    33 1   
    12     6     7 ar  
    13     6    14 ar  
    14     7     8 ar  
    15     7    34 1   
    16     8     9 ar  
    17     8    35 1   
    18     9    10 1   
    19     9    13 ar  
    20    10    11 1   
    21    10    12 1   
    22    13    14 ar  
    23    13    36 1   
    24    14    37 1   
    25    15    16 1   
    26    15    28 2   
    27    16    17 1   
    28    16    38 1   
    29    17    18 1   
    30    17    39 1   
    31    17    40 1   
    32    18    19 ar  
    33    18    27 ar  
    34    19    20 1   
    35    19    22 ar  
    36    20    21 1   
    37    21    41 1   
    38    21    42 1   
    39    21    43 1   
    40    22    23 1   
    41    22    25 ar  
    42    23    24 1   
    43    24    44 1   
    44    24    45 1   
    45    24    46 1   
    46    25    26 ar  
    47    25    47 1   
    48    26    27 ar  
    49    26    48 1   
    50    27    49 1   
@<TRIPOS>SUBSTRUCTURE
     1 URK         1 TEMP              0 ****  ****    0 ROOT
