@<TRIPOS>MOLECULE
URK
   49    50     1     0     0
SMALL
abcg2


@<TRIPOS>ATOM
      1 C1          20.0320     2.0060   -25.4490 c2         1 URK      -0.227000
      2 C2          20.3720     3.1130   -24.7970 ce         1 URK      -0.267200
      3 C3          20.8510     4.3510   -25.4370 c          1 URK       0.601300
      4 O1          20.9470     4.2560   -26.7650 os         1 URK      -0.422100
      5 C4          21.3540     5.4130   -27.4640 c3         1 URK       0.133600
      6 C5          21.4340     5.0610   -28.9250 ca         1 URK      -0.051300
      7 C6          22.5460     5.4440   -29.6660 ca         1 URK      -0.098500
      8 C7          22.6160     5.1830   -31.0240 ca         1 URK      -0.050000
      9 C8          21.5560     4.5290   -31.6310 ca         1 URK      -0.171200
     10 N1          21.6240     4.2400   -33.0570 no         1 URK       0.693200
     11 O2          22.6230     4.5640   -33.6540 o          1 URK      -0.395500
     12 O3          20.6780     3.6910   -33.5690 o          1 URK      -0.395500
     13 C9          20.4350     4.1380   -30.9130 ca         1 URK      -0.050000
     14 C10         20.3790     4.4090   -29.5580 ca         1 URK      -0.098500
     15 C11         20.3100     6.5280   -27.3040 c          1 URK       0.589100
     16 N2          20.7840     7.7590   -27.5270 ns         1 URK      -0.498900
     17 C12         19.9110     8.9070   -27.5880 c3         1 URK       0.155300
     18 C13         19.0200     8.9170   -28.8110 ca         1 URK      -0.078300
     19 C14         17.7980     9.5740   -28.7650 ca         1 URK       0.078100
     20 O4          17.3960    10.1910   -27.6170 os         1 URK      -0.354100
     21 C15         16.5400     9.3980   -26.8030 c3         1 URK       0.142900
     22 C16         16.9680     9.6300   -29.8970 ca         1 URK       0.127100
     23 O5          15.8110    10.2960   -29.7410 os         1 URK      -0.326100
     24 C17         14.9130    10.3490   -30.8290 c3         1 URK       0.145900
     25 C18         17.3800     9.0200   -31.0770 ca         1 URK      -0.189000
     26 C19         18.6070     8.3670   -31.1180 ca         1 URK      -0.075000
     27 C20         19.4240     8.3180   -30.0040 ca         1 URK      -0.135000
     28 O6          19.1450     6.2730   -27.0650 o          1 URK      -0.573100
     29 O7          21.1420     5.3480   -24.8260 o          1 URK      -0.476000
     30 H1          20.0810     1.9170   -26.5260 ha         1 URK       0.176000
     31 H2          19.6850     1.1370   -24.9070 ha         1 URK       0.176000
     32 H4          20.3060     3.1630   -23.7170 ha         1 URK       0.206000
     33 H6          22.3330     5.7540   -27.1120 h1         1 URK       0.074700
     34 H7          23.3730     5.9470   -29.1820 ha         1 URK       0.138000
     35 H8          23.4880     5.4830   -31.5860 ha         1 URK       0.154500
     36 H9          19.6110     3.6310   -31.3930 ha         1 URK       0.154500
     37 H10         19.5010     4.1090   -29.0010 ha         1 URK       0.138000
     38 H11         21.7670     7.8950   -27.7000 hn         1 URK       0.318500
     39 H12         20.5470     9.7930   -27.5930 h1         1 URK       0.070200
     40 H13         19.3210     8.9590   -26.6730 h1         1 URK       0.070200
     41 H14         16.3460     9.9630   -25.8930 h1         1 URK       0.040700
     42 H15         15.5880     9.1870   -27.2960 h1         1 URK       0.040700
     43 H16         17.0110     8.4480   -26.5330 h1         1 URK       0.040700
     44 H17         14.0430    10.9020   -30.4840 h1         1 URK       0.041367
     45 H18         15.3410    10.8710   -31.6890 h1         1 URK       0.041367
     46 H19         14.5930     9.3530   -31.1460 h1         1 URK       0.041367
     47 H20         16.7630     9.0450   -31.9650 ha         1 URK       0.120000
     48 H21         18.9220     7.8950   -32.0390 ha         1 URK       0.114000
     49 H22         20.3760     7.8050   -30.0580 ha         1 URK       0.109000
@<TRIPOS>BOND
     1     1     2 2   
     2     1    30 1   
     3     1    31 1   
     4     2     3 1   
     5     2    32 1   
     6     3     4 1   
     7     3    29 2   
     8     4     5 1   
     9     5     6 1   
    10     5    15 1   
    11     5    33 1   
    12     6     7 ar  
    13     6    14 ar  
    14     7     8 ar  
    15     7    34 1   
    16     8     9 ar  
    17     8    35 1   
    18     9    10 1   
    19     9    13 ar  
    20    10    11 1   
    21    10    12 1   
    22    13    14 ar  
    23    13    36 1   
    24    14    37 1   
    25    15    16 1   
    26    15    28 2   
    27    16    17 1   
    28    16    38 1   
    29    17    18 1   
    30    17    39 1   
    31    17    40 1   
    32    18    19 ar  
    33    18    27 ar  
    34    19    20 1   
    35    19    22 ar  
    36    20    21 1   
    37    21    41 1   
    38    21    42 1   
    39    21    43 1   
    40    22    23 1   
    41    22    25 ar  
    42    23    24 1   
    43    24    44 1   
    44    24    45 1   
    45    24    46 1   
    46    25    26 ar  
    47    25    47 1   
    48    26    27 ar  
    49    26    48 1   
    50    27    49 1   
@<TRIPOS>SUBSTRUCTURE
     1 URK         1 TEMP              0 ****  ****    0 ROOT
