@<TRIPOS>MOLECULE
URM
   60    62     1     0     0
SMALL
bcc


@<TRIPOS>ATOM
      1 C1           4.6990     0.3680     1.4470 c5         1 URM       0.308500
      2 C2           5.6630     1.4240     0.8740 c5         1 URM       0.072100
      3 C3           4.8080     2.1510    -0.1820 c5         1 URM       0.066100
      4 C4           3.3840     1.8950     0.3050 c5         1 URM       0.142100
      5 C5           2.3680     1.8780    -0.8080 c3         1 URM       0.215400
      6 O6           3.4210     0.6330     0.9500 os         1 URM      -0.355600
      7 O7           5.0540     3.5340    -0.2170 oh         1 URM      -0.584800
      8 O8           1.0770     1.8010    -0.2510 os         1 URM      -0.549200
      9 P9          -0.2000     1.5770    -1.2780 p5         1 URM       1.461800
     10 O10         -0.3820     0.1110    -1.5290 o          1 URM      -0.860000
     11 O11         -0.0560     2.5230    -2.4310 o          1 URM      -0.860000
     12 O12         -1.2960     2.1230    -0.2020 os         1 URM      -0.702800
     13 N13          5.0390    -1.0250     1.1840 n          1 URM      -0.374000
     14 N15          5.4700    -2.7990    -0.2420 ns         1 URM      -0.604500
     15 C17          5.4420    -3.1980     2.0870 cc         1 URM      -0.363200
     16 C18          5.1570    -1.8940     2.2320 cd         1 URM       0.085600
     17 C19          5.1850    -1.4660    -0.1170 c          1 URM       0.832500
     18 O19          5.0790    -0.7350    -1.0780 o          1 URM      -0.615500
     19 C20          5.6250    -3.7410     0.7640 c          1 URM       0.741700
     20 O20          5.8860    -4.8980     0.4940 o          1 URM      -0.636500
     21 O21          6.0030     2.3000     1.9170 oh         1 URM      -0.610800
     22 P22         -2.9430     1.8370    -0.2740 p5         1 URM       1.321600
     23 O23         -3.5330     2.8480     0.6730 o          1 URM      -0.845000
     24 O24         -3.3510     1.8080    -1.7180 o          1 URM      -0.845000
     25 O36         -5.4720     0.0570     0.2170 os         1 URM      -0.380600
     26 C37         -5.5280    -0.8800    -0.8350 c6         1 URM       0.122100
     27 C38         -5.6600    -2.3100    -0.2960 c6         1 URM       0.083100
     28 C39         -4.5170    -2.5770     0.6810 c6         1 URM       0.106100
     29 C40         -4.4900    -1.5020     1.7590 c6         1 URM       0.123100
     30 C41         -4.3920    -0.1120     1.1140 c6         1 URM       0.186100
     31 O42         -6.8780    -2.5230     0.3810 oh         1 URM      -0.586800
     32 O43         -4.6240    -3.8250     1.3240 oh         1 URM      -0.609800
     33 O44         -3.4060    -1.6670     2.6410 oh         1 URM      -0.577800
     34 C45         -3.0300     0.1760     0.4900 c3         1 URM      -0.325600
     35 H1           4.7170     0.4550     2.5370 h2         1 URM       0.067700
     36 H2           6.5610     0.9700     0.4410 h1         1 URM       0.051700
     37 H3           4.9670     1.6980    -1.1620 h1         1 URM       0.081700
     38 H4           3.1150     2.6780     1.0300 h1         1 URM       0.077700
     39 H5           2.4920     2.7940    -1.3980 h1         1 URM       0.027200
     40 H5A          2.5820     1.0310    -1.4720 h1         1 URM       0.027200
     41 HO7          5.7320     3.7130    -0.8760 ho         1 URM       0.399000
     42 H17          5.5290    -3.8410     2.9490 ha         1 URM       0.161000
     43 H18          5.0050    -1.4600     3.2100 h4         1 URM       0.155000
     44 HO21         6.0030     3.1920     1.5430 ho         1 URM       0.426000
     45 H38         -5.5620    -3.0000    -1.1470 h1         1 URM       0.011700
     46 H39         -3.5790    -2.5220     0.1090 h1         1 URM       0.076700
     47 H40         -5.4400    -1.5400     2.3130 h1         1 URM       0.034700
     48 H41         -4.5570     0.6360     1.8950 h1         1 URM       0.099700
     49 HO42        -7.5620    -2.7180    -0.2660 ho         1 URM       0.379000
     50 HO43        -4.4020    -4.5170     0.6940 ho         1 URM       0.388000
     51 HO44        -3.4470    -2.5620     2.9930 ho         1 URM       0.389000
     52 H45         -2.7360    -0.5670    -0.2530 hc         1 URM       0.074700
     53 H45A        -2.2830     0.1240     1.2830 hc         1 URM       0.074700
     54 HO47        -7.2460     0.8860    -2.9090 ho         1 URM       0.368000
     55 HN15         5.5860    -3.1250    -1.1940 hn         1 URM       0.335500
     56 C46         -6.7050    -0.5310    -1.7230 c3         1 URM       0.151400
     57 O47         -6.4680     0.6890    -2.3800 oh         1 URM      -0.516800
     58 H46         -6.8360    -1.3540    -2.4400 h1         1 URM      -0.009300
     59 H46A        -7.6170    -0.4870    -1.1140 h1         1 URM      -0.009300
     60 H37         -4.6150    -0.8330    -1.4460 h1         1 URM       0.102700
@<TRIPOS>BOND
     1     1     2 1   
     2     1     6 1   
     3     1    13 1   
     4     1    35 1   
     5     2     3 1   
     6     2    21 1   
     7     2    36 1   
     8     3     4 1   
     9     3     7 1   
    10     3    37 1   
    11     4     5 1   
    12     4     6 1   
    13     4    38 1   
    14     5     8 1   
    15     5    39 1   
    16     5    40 1   
    17     7    41 1   
    18     8     9 1   
    19     9    10 1   
    20     9    11 1   
    21     9    12 1   
    22    12    22 1   
    23    13    16 1   
    24    13    17 1   
    25    14    17 1   
    26    14    19 1   
    27    14    55 1   
    28    15    16 2   
    29    15    19 1   
    30    15    42 1   
    31    16    43 1   
    32    17    18 2   
    33    19    20 2   
    34    21    44 1   
    35    22    23 1   
    36    22    24 1   
    37    22    34 1   
    38    25    26 1   
    39    25    30 1   
    40    26    27 1   
    41    26    56 1   
    42    26    60 1   
    43    27    28 1   
    44    27    31 1   
    45    27    45 1   
    46    28    29 1   
    47    28    32 1   
    48    28    46 1   
    49    29    30 1   
    50    29    33 1   
    51    29    47 1   
    52    30    34 1   
    53    30    48 1   
    54    31    49 1   
    55    32    50 1   
    56    33    51 1   
    57    34    52 1   
    58    34    53 1   
    59    54    57 1   
    60    56    57 1   
    61    56    58 1   
    62    56    59 1   
@<TRIPOS>SUBSTRUCTURE
     1 URM         1 TEMP              0 ****  ****    0 ROOT
