@<TRIPOS>MOLECULE
URM
   60    62     1     0     0
SMALL
No Charge or Current Charge


@<TRIPOS>ATOM
      1 C1           3.8610    -0.1850     0.9740 c5         1 URM       0.331700
      2 C2           4.1820     1.3610     0.9280 c5         1 URM       0.095300
      3 C3           3.8640     1.7000    -0.5620 c5         1 URM       0.089300
      4 C4           2.7150     0.6790    -0.8490 c5         1 URM       0.165300
      5 C5           2.3950     0.4740    -2.3590 c3         1 URM       0.238600
      6 O6           3.2420    -0.5400    -0.2790 os         1 URM      -0.402000
      7 O7           3.4680     3.0840    -0.6940 oh         1 URM      -0.707000
      8 O8           1.1670    -0.2590    -2.5370 os         1 URM      -0.572400
      9 P9          -0.2630     0.4860    -2.6240 p5         1 URM       1.461800
     10 O10         -1.2670    -0.4860    -3.1490 o          1 URM      -0.860000
     11 O11         -0.1420     1.7180    -3.4590 o          1 URM      -0.860000
     12 O12         -0.4340     0.7800    -1.0900 os         1 URM      -0.702800
     13 N13          5.1340    -0.9170     1.2390 n          1 URM      -0.307000
     14 N15          7.1470    -1.9250     0.5360 ns         1 URM      -0.470500
     15 C17          6.5280    -2.0730     2.8020 cc         1 URM      -0.413200
     16 C18          5.3870    -1.3490     2.5400 cd         1 URM       0.035600
     17 C19          6.0460    -1.2010     0.1910 c          1 URM       0.623000
     18 O19          5.9170    -0.8190    -0.9610 o          1 URM      -0.540000
     19 C20          7.4910    -2.4030     1.7570 c          1 URM       0.599200
     20 O20          8.5120    -3.0420     1.9420 o          1 URM      -0.561000
     21 O21          3.3120     2.1510     1.7530 oh         1 URM      -0.733000
     22 P22         -1.8550     1.3130    -0.6540 p5         1 URM       1.479400
     23 O23         -1.6940     2.2920     0.4650 o          1 URM      -0.845000
     24 O24         -2.7160     1.8630    -1.7420 o          1 URM      -0.845000
     25 O36         -4.8360     0.4490     0.5740 os         1 URM      -0.427000
     26 C37         -5.5870    -0.4850    -0.2610 c6         1 URM       0.145300
     27 C38         -5.9650    -1.7780     0.5440 c6         1 URM       0.106300
     28 C39         -4.6600    -2.4030     1.1260 c6         1 URM       0.129300
     29 C40         -3.8940    -1.3480     1.9860 c6         1 URM       0.146300
     30 C41         -3.5980    -0.0590     1.1420 c6         1 URM       0.209300
     31 O42         -6.8940    -1.5210     1.6260 oh         1 URM      -0.709000
     32 O43         -4.9950    -3.5510     1.9280 oh         1 URM      -0.672000
     33 O44         -2.7040    -1.9390     2.5490 oh         1 URM      -0.700000
     34 C45         -2.5360    -0.2370     0.0150 c3         1 URM      -0.483400
     35 H1           3.1740    -0.4110     1.8010 h2         1 URM       0.067700
     36 H2           5.2340     1.5750     1.1670 h1         1 URM       0.051700
     37 H3           4.7380     1.4810    -1.1960 h1         1 URM       0.081700
     38 H4           1.8100     0.9680    -0.2990 h1         1 URM       0.077700
     39 H5           2.3350     1.4570    -2.8420 h1         1 URM       0.027200
     40 H5A          3.2280    -0.0660    -2.8280 h1         1 URM       0.027200
     41 HO7          3.6630     3.3700    -1.6200 ho         1 URM       0.498000
     42 H17          6.7670    -2.4350     3.7960 ha         1 URM       0.211000
     43 H18          4.6350    -1.0740     3.2800 h4         1 URM       0.205000
     44 HO21         3.0660     2.8920     1.1350 ho         1 URM       0.525000
     45 H38         -6.4120    -2.4990    -0.1570 h1         1 URM       0.011700
     46 H39         -4.0140    -2.7060     0.2870 h1         1 URM       0.076700
     47 H40         -4.5550    -1.0430     2.8110 h1         1 URM       0.034700
     48 H41         -3.2200     0.6980     1.8460 h1         1 URM       0.099700
     49 HO42        -7.7340    -1.1940     1.2250 ho         1 URM       0.478000
     50 HO43        -5.8770    -3.3230     2.3040 ho         1 URM       0.427000
     51 HO44        -2.9620    -2.8700     2.7450 ho         1 URM       0.488000
     52 H45         -2.8790    -0.8400    -0.8280 hc         1 URM       0.074700
     53 H45A        -1.6540    -0.7430     0.4200 hc         1 URM       0.074700
     54 HO47        -7.3770     1.8200    -1.8810 ho         1 URM       0.467000
     55 HN15         7.7920    -2.1260    -0.2130 hn         1 URM       0.335500
     56 C46         -6.8460     0.2460    -0.8400 c3         1 URM       0.174600
     57 O47         -6.5250     1.4000    -1.6300 oh         1 URM      -0.639000
     58 H46         -7.4070    -0.4720    -1.4530 h1         1 URM      -0.009300
     59 H46A        -7.4980     0.5450    -0.0080 h1         1 URM      -0.009300
     60 H37         -4.9780    -0.7770    -1.1260 h1         1 URM       0.102700
@<TRIPOS>BOND
     1     1     2 1   
     2     1     6 1   
     3     1    13 1   
     4     1    35 1   
     5     2     3 1   
     6     2    21 1   
     7     2    36 1   
     8     3     4 1   
     9     3     7 1   
    10     3    37 1   
    11     4     5 1   
    12     4     6 1   
    13     4    38 1   
    14     5     8 1   
    15     5    39 1   
    16     5    40 1   
    17     7    41 1   
    18     8     9 1   
    19     9    10 1   
    20     9    11 1   
    21     9    12 1   
    22    12    22 1   
    23    13    16 1   
    24    13    17 1   
    25    14    17 1   
    26    14    19 1   
    27    14    55 1   
    28    15    16 2   
    29    15    19 1   
    30    15    42 1   
    31    16    43 1   
    32    17    18 2   
    33    19    20 2   
    34    21    44 1   
    35    22    23 1   
    36    22    24 1   
    37    22    34 1   
    38    25    26 1   
    39    25    30 1   
    40    26    27 1   
    41    26    56 1   
    42    26    60 1   
    43    27    28 1   
    44    27    31 1   
    45    27    45 1   
    46    28    29 1   
    47    28    32 1   
    48    28    46 1   
    49    29    30 1   
    50    29    33 1   
    51    29    47 1   
    52    30    34 1   
    53    30    48 1   
    54    31    49 1   
    55    32    50 1   
    56    33    51 1   
    57    34    52 1   
    58    34    53 1   
    59    54    57 1   
    60    56    57 1   
    61    56    58 1   
    62    56    59 1   
@<TRIPOS>SUBSTRUCTURE
     1 URM         1 TEMP              0 ****  ****    0 ROOT
