@<TRIPOS>MOLECULE
URN
   16    16     1     0     0
SMALL
abcg2


@<TRIPOS>ATOM
      1 O4           0.8130    -2.3750     0.1400 o          1 URN      -0.557000
      2 C4           0.3760    -1.2320     0.0770 c          1 URN       0.589200
      3 N3          -1.0090    -1.0360     0.0730 ns         1 URN      -0.468500
      4 C5           1.1590    -0.0440     0.0090 cc         1 URN      -0.266200
      5 N5           2.5750    -0.0660     0.0130 nv         1 URN      -0.881000
      6 C6           0.5260     1.1790    -0.0580 cd         1 URN       0.387600
      7 N6           1.1940     2.3290    -0.1440 nv         1 URN      -0.978000
      8 N1          -0.8410     1.2470    -0.0560 ns         1 URN      -0.547600
      9 C2          -1.6660     0.1540     0.0070 c          1 URN       0.627000
     10 O2          -2.8780     0.2560     0.0030 o          1 URN      -0.560000
     11 HN3         -1.5890    -1.8630     0.1170 hn         1 URN       0.345500
     12 HN51         2.9350    -0.5270     0.8390 hn         1 URN       0.415000
     13 HN52         2.9410    -0.5700    -0.7850 hn         1 URN       0.415000
     14 HN61         2.1980     2.2860    -0.0810 hn         1 URN       0.512000
     15 HN62         0.7440     3.2240    -0.0780 hn         1 URN       0.512000
     16 HN1         -1.2970     2.1470    -0.1100 hn         1 URN       0.455000
@<TRIPOS>BOND
     1     1     2 2   
     2     2     3 1   
     3     2     4 1   
     4     3     9 1   
     5     3    11 1   
     6     4     5 1   
     7     4     6 2   
     8     5    12 1   
     9     5    13 1   
    10     6     7 1   
    11     6     8 1   
    12     7    14 1   
    13     7    15 1   
    14     8     9 1   
    15     8    16 1   
    16     9    10 2   
@<TRIPOS>SUBSTRUCTURE
     1 URN         1 TEMP              0 ****  ****    0 ROOT
