@<TRIPOS>MOLECULE
URN
   16    16     1     0     0
SMALL
No Charge or Current Charge


@<TRIPOS>ATOM
      1 O4           0.7110    -2.4020     0.4580 o          1 URN      -0.557000
      2 C4           0.2970    -1.2680     0.2630 c          1 URN       0.589200
      3 N3          -1.0370    -1.0060     0.2340 ns         1 URN      -0.468500
      4 C5           1.1690    -0.0650     0.0360 cc         1 URN      -0.266200
      5 N5           2.5540    -0.3120     0.0520 nv         1 URN      -0.881000
      6 C6           0.5440     1.1480    -0.1650 cd         1 URN       0.387600
      7 N6           1.1740     2.3210    -0.3640 nv         1 URN      -0.978000
      8 N1          -0.8040     1.2270    -0.1700 ns         1 URN      -0.547600
      9 C2          -1.6490     0.1840     0.0230 c          1 URN       0.627000
     10 O2          -2.8570     0.3110     0.0070 o          1 URN      -0.560000
     11 HN3         -1.6460    -1.7940     0.3810 hn         1 URN       0.345500
     12 HN51         2.9010    -1.2670     0.1690 hn         1 URN       0.415000
     13 HN52         3.2310     0.3890    -0.2510 hn         1 URN       0.415000
     14 HN61         2.1710     2.3430    -0.1760 hn         1 URN       0.512000
     15 HN62         0.6890     3.1950    -0.1840 hn         1 URN       0.512000
     16 HN1         -1.2660     2.1060    -0.3480 hn         1 URN       0.455000
@<TRIPOS>BOND
     1     1     2 2   
     2     2     3 1   
     3     2     4 1   
     4     3     9 1   
     5     3    11 1   
     6     4     5 1   
     7     4     6 2   
     8     5    12 1   
     9     5    13 1   
    10     6     7 1   
    11     6     8 1   
    12     7    14 1   
    13     7    15 1   
    14     8     9 1   
    15     8    16 1   
    16     9    10 2   
@<TRIPOS>SUBSTRUCTURE
     1 URN         1 TEMP              0 ****  ****    0 ROOT
