@<TRIPOS>MOLECULE
URO
   15    15     1     0     0
SMALL
No Charge or Current Charge


@<TRIPOS>ATOM
      1 OAA          1.1800    -0.0040     3.0650 o          1 URO      -0.730500
      2 CAI          0.0030    -0.0160     2.7350 c          1 URO       0.693200
      3 OAB         -0.9190    -0.0290     3.5350 o          1 URO      -0.730500
      4 CAC         -0.3420    -0.0170     1.2770 ce         1 URO      -0.206200
      5 CAD          0.5410    -0.0040     0.2270 cf         1 URO      -0.334800
      6 CAJ          0.2400    -0.0030    -1.1990 cd         1 URO       0.345800
      7 CAF          1.1430     0.0100    -2.2280 cc         1 URO      -0.268000
      8 NAH          0.3770     0.0040    -3.3770 na         1 URO      -0.316500
      9 CAE         -0.9450    -0.0120    -3.0000 cc         1 URO       0.362400
     10 NAG         -1.0490    -0.0170    -1.6800 nd         1 URO      -0.670000
     11 HAC         -1.4090    -0.0290     1.0660 ha         1 URO       0.160000
     12 HAD          1.6080     0.0080     0.4540 ha         1 URO       0.183000
     13 HAF          2.2260     0.0230    -2.2230 h4         1 URO       0.149000
     14 HAH          0.7080     0.0110    -4.3350 hn         1 URO       0.330000
     15 HAE         -1.7590    -0.0200    -3.7160 h5         1 URO       0.034100
@<TRIPOS>BOND
     1     1     2 1   
     2     2     3 1   
     3     2     4 1   
     4     4     5 2   
     5     4    11 1   
     6     5     6 1   
     7     5    12 1   
     8     6     7 2   
     9     6    10 1   
    10     7     8 1   
    11     7    13 1   
    12     8     9 1   
    13     8    14 1   
    14     9    10 2   
    15     9    15 1   
@<TRIPOS>SUBSTRUCTURE
     1 URO         1 TEMP              0 ****  ****    0 ROOT
