@<TRIPOS>MOLECULE
URO
   15    15     1     0     0
SMALL
bcc


@<TRIPOS>ATOM
      1 OAA          1.2440    -0.0080     2.9780 o          1 URO      -0.835800
      2 CAI          0.0270    -0.0160     2.6960 c          1 URO       0.903800
      3 OAB         -0.9220    -0.0240     3.5100 o          1 URO      -0.835800
      4 CAC         -0.3620    -0.0170     1.2400 ce         1 URO      -0.156200
      5 CAD          0.5280    -0.0040     0.2450 cf         1 URO      -0.284800
      6 CAJ          0.2180    -0.0030    -1.1700 cd         1 URO       0.411100
      7 CAF          1.1210     0.0110    -2.2060 cc         1 URO      -0.300600
      8 NAH          0.3740     0.0040    -3.3420 na         1 URO      -0.316900
      9 CAE         -0.9240    -0.0130    -2.9740 cc         1 URO       0.362400
     10 NAG         -1.0580    -0.0180    -1.6760 nd         1 URO      -0.670000
     11 HAC         -1.4230    -0.0290     1.0090 ha         1 URO       0.110000
     12 HAD          1.5860     0.0080     0.4920 ha         1 URO       0.133000
     13 HAF          2.1980     0.0240    -2.2180 h4         1 URO       0.167000
     14 HAH          0.7240     0.0120    -4.2870 hn         1 URO       0.279700
     15 HAE         -1.7270    -0.0210    -3.6960 h5         1 URO       0.034100
@<TRIPOS>BOND
     1     1     2 1   
     2     2     3 1   
     3     2     4 1   
     4     4     5 2   
     5     4    11 1   
     6     5     6 1   
     7     5    12 1   
     8     6     7 2   
     9     6    10 1   
    10     7     8 1   
    11     7    13 1   
    12     8     9 1   
    13     8    14 1   
    14     9    10 2   
    15     9    15 1   
@<TRIPOS>SUBSTRUCTURE
     1 URO         1 TEMP              0 ****  ****    0 ROOT
