@<TRIPOS>MOLECULE
URP
   16    15     1     0     0
SMALL
No Charge or Current Charge


@<TRIPOS>ATOM
      1 O2           2.6590     1.2110    -0.5690 o          1 URP      -0.656100
      2 C2           2.5120     0.0570    -0.2150 c          1 URP       0.623100
      3 N3           3.5510    -0.7640    -0.0100 nt         1 URP      -0.610000
      4 N1           1.3040    -0.5310     0.0140 ns         1 URP      -0.514900
      5 C6           0.0190     0.1480    -0.1370 c3         1 URP       0.121000
      6 C5          -1.1510    -0.7930     0.1960 c3         1 URP      -0.230400
      7 C4          -2.4650    -0.0240     0.0180 c          1 URP       0.723000
      8 O42         -2.9860    -0.0240    -1.0860 o          1 URP      -0.733500
      9 O41         -2.9000     0.5980     0.9740 o          1 URP      -0.733500
     10 HN31         4.4870    -0.4160    -0.1540 hn         1 URP       0.284000
     11 HN32         3.3980    -1.7160     0.2840 hn         1 URP       0.284000
     12 HN1          1.3060    -1.4990     0.3060 hn         1 URP       0.293500
     13 H61         -0.0030     1.0190     0.5310 h1         1 URP       0.056200
     14 H62         -0.0750     0.5050    -1.1720 h1         1 URP       0.056200
     15 H51         -1.0860    -1.6240    -0.5180 hc         1 URP       0.018700
     16 H52         -1.0130    -1.0920     1.2420 hc         1 URP       0.018700
@<TRIPOS>BOND
     1     1     2 2   
     2     2     3 1   
     3     2     4 1   
     4     3    10 1   
     5     3    11 1   
     6     4     5 1   
     7     4    12 1   
     8     5     6 1   
     9     5    13 1   
    10     5    14 1   
    11     6     7 1   
    12     6    15 1   
    13     6    16 1   
    14     7     8 1   
    15     7     9 1   
@<TRIPOS>SUBSTRUCTURE
     1 URP         1 TEMP              0 ****  ****    0 ROOT
