@<TRIPOS>MOLECULE
URP
   16    15     1     0     0
SMALL
abcg2


@<TRIPOS>ATOM
      1 O2           2.6480     1.2680     0.1120 o          1 URP      -0.656100
      2 C2           2.5110     0.0530     0.0040 c          1 URP       0.623100
      3 N3           3.5770    -0.7900    -0.1480 nt         1 URP      -0.610000
      4 N1           1.2980    -0.5470    -0.0040 ns         1 URP      -0.514900
      5 C6           0.0630     0.2120    -0.0410 c3         1 URP       0.121000
      6 C5          -1.1240    -0.7320     0.0130 c3         1 URP      -0.230400
      7 C4          -2.4990    -0.0400    -0.0300 c          1 URP       0.723000
      8 O42         -3.4880    -0.7990    -0.0600 o          1 URP      -0.733500
      9 O41         -2.5180     1.2060    -0.0260 o          1 URP      -0.733500
     10 HN31         4.4780    -0.4170     0.1030 hn         1 URP       0.284000
     11 HN32         3.4680    -1.7720     0.0440 hn         1 URP       0.284000
     12 HN1          1.2430    -1.5260    -0.2330 hn         1 URP       0.293500
     13 H61          0.0300     0.8980     0.8070 h1         1 URP       0.056200
     14 H62          0.0110     0.8250    -0.9460 h1         1 URP       0.056200
     15 H51         -1.0690    -1.4460    -0.8160 hc         1 URP       0.018700
     16 H52         -1.0720    -1.3390     0.9250 hc         1 URP       0.018700
@<TRIPOS>BOND
     1     1     2 2   
     2     2     3 1   
     3     2     4 1   
     4     3    10 1   
     5     3    11 1   
     6     4     5 1   
     7     4    12 1   
     8     5     6 1   
     9     5    13 1   
    10     5    14 1   
    11     6     7 1   
    12     6    15 1   
    13     6    16 1   
    14     7     8 1   
    15     7     9 1   
@<TRIPOS>SUBSTRUCTURE
     1 URP         1 TEMP              0 ****  ****    0 ROOT
