@<TRIPOS>MOLECULE
URQ
   19    18     1     0     0
SMALL
No Charge or Current Charge


@<TRIPOS>ATOM
      1 O41          2.6590    -0.9020    -0.8060 o          1 URQ      -0.731000
      2 C4           2.3820    -0.2440     0.1860 c          1 URQ       0.723000
      3 O42          3.0780    -0.2150     1.1900 o          1 URQ      -0.731000
      4 C5           1.0810     0.5840     0.1830 c3         1 URQ      -0.213700
      5 C7           1.1170     1.6890    -0.9040 c3         1 URQ      -0.060100
      6 C6          -0.1350    -0.3560     0.0430 c3         1 URQ       0.123000
      7 N1          -1.4010     0.3510     0.2350 ns         1 URQ      -0.512900
      8 C2          -2.6280    -0.2330     0.1300 c          1 URQ       0.625100
      9 O2          -2.8100    -1.4070    -0.1300 o          1 URQ      -0.658100
     10 N3          -3.6420     0.6170     0.3430 nt         1 URQ      -0.607000
     11 H2           0.2360     2.3380    -0.8360 hc         1 URQ       0.016033
     12 H3           2.0080     2.3170    -0.7810 hc         1 URQ       0.016033
     13 H4          -0.1330    -0.8250    -0.9500 h1         1 URQ       0.059700
     14 H5          -3.4590     1.5850     0.5570 hn         1 URQ       0.282000
     15 H6          -4.5890     0.2750     0.2870 hn         1 URQ       0.282000
     16 H7           1.0030     1.0870     1.1550 hc         1 URQ       0.020700
     17 H8           1.1430     1.2510    -1.9090 hc         1 URQ       0.016033
     18 H9          -0.0660    -1.1540     0.7960 h1         1 URQ       0.059700
     19 H10         -1.3730     1.3370     0.4550 hn         1 URQ       0.291500
@<TRIPOS>BOND
     1     1     2 1   
     2     2     3 1   
     3     2     4 1   
     4     4     5 1   
     5     4     6 1   
     6     4    16 1   
     7     5    11 1   
     8     5    12 1   
     9     5    17 1   
    10     6     7 1   
    11     6    13 1   
    12     6    18 1   
    13     7     8 1   
    14     7    19 1   
    15     8     9 2   
    16     8    10 1   
    17    10    14 1   
    18    10    15 1   
@<TRIPOS>SUBSTRUCTURE
     1 URQ         1 TEMP              0 ****  ****    0 ROOT
