@<TRIPOS>MOLECULE
URQ
   19    18     1     0     0
SMALL
bcc


@<TRIPOS>ATOM
      1 O41          2.3550    -1.4560    -0.0770 o          1 URQ      -0.836300
      2 C4           2.4070    -0.2320     0.1600 c          1 URQ       0.933600
      3 O42          3.4420     0.4390     0.3450 o          1 URQ      -0.836300
      4 C5           1.0740     0.5480     0.2230 c3         1 URQ      -0.213700
      5 C7           1.0500     1.6310    -0.8560 c3         1 URQ      -0.060100
      6 C6          -0.1350    -0.3730     0.1270 c3         1 URQ       0.123000
      7 N1          -1.3680     0.3620     0.3270 ns         1 URQ      -0.579900
      8 C2          -2.5620    -0.0560    -0.1490 c          1 URQ       0.759100
      9 O2          -2.6880    -1.0390    -0.8750 o          1 URQ      -0.658100
     10 N3          -3.6290     0.7360     0.1830 nt         1 URQ      -0.674000
     11 H2           0.1500     2.2440    -0.7970 hc         1 URQ       0.016033
     12 H3           1.9090     2.2930    -0.7580 hc         1 URQ       0.016033
     13 H4          -0.1650    -0.8430    -0.8560 h1         1 URQ       0.059700
     14 H5          -3.5620     1.3520     0.9760 hn         1 URQ       0.282000
     15 H6          -4.5370     0.3200     0.0630 hn         1 URQ       0.282000
     16 H7           1.0480     1.0510     1.1990 hc         1 URQ       0.020700
     17 H8           1.0800     1.1870    -1.8540 hc         1 URQ       0.016033
     18 H9          -0.0460    -1.1790     0.8620 h1         1 URQ       0.059700
     19 H10         -1.3510     1.1110     1.0000 hn         1 URQ       0.291500
@<TRIPOS>BOND
     1     1     2 1   
     2     2     3 1   
     3     2     4 1   
     4     4     5 1   
     5     4     6 1   
     6     4    16 1   
     7     5    11 1   
     8     5    12 1   
     9     5    17 1   
    10     6     7 1   
    11     6    13 1   
    12     6    18 1   
    13     7     8 1   
    14     7    19 1   
    15     8     9 2   
    16     8    10 1   
    17    10    14 1   
    18    10    15 1   
@<TRIPOS>SUBSTRUCTURE
     1 URQ         1 TEMP              0 ****  ****    0 ROOT
