@<TRIPOS>MOLECULE
URS
   18    18     1     0     0
SMALL
No Charge or Current Charge


@<TRIPOS>ATOM
      1 N1          -0.8740     0.1470     0.8830 ns         1 URS      -0.370100
      2 N2          -1.0930     0.2540     3.1150 nt         1 URS      -0.558000
      3 C1          -0.9370    -0.3680    -2.8030 ca         1 URS      -0.096500
      4 C2          -1.3260    -0.3210    -1.4520 ca         1 URS      -0.110000
      5 C3          -0.4230     0.1070    -0.4610 ca         1 URS       0.055600
      6 C4           0.8720     0.5150    -0.8440 ca         1 URS      -0.110000
      7 C5           1.2620     0.4700    -2.1940 ca         1 URS      -0.096500
      8 C6           0.3590     0.0250    -3.1740 ca         1 URS      -0.112000
      9 C7          -0.2370     0.1250     2.0930 cs         1 URS       0.485400
     10 S1           1.3830    -0.1320     2.3870 s          1 URS      -0.650400
     11 H1N         -1.8800     0.2230     0.9550 hn         1 URS       0.305500
     12 H2N2        -0.7400     0.2220     4.0610 hn         1 URS       0.327500
     13 H1N2        -2.0810     0.3910     2.9600 hn         1 URS       0.327500
     14 H1          -1.6400    -0.7070    -3.5600 ha         1 URS       0.117000
     15 H2          -2.3330    -0.6280    -1.1770 ha         1 URS       0.125500
     16 H4           1.5790     0.8880    -0.1100 ha         1 URS       0.125500
     17 H5           2.2630     0.7860    -2.4810 ha         1 URS       0.117000
     18 H6           0.6610    -0.0090    -4.2180 ha         1 URS       0.116000
@<TRIPOS>BOND
     1     1     5 1   
     2     1     9 1   
     3     1    11 1   
     4     2     9 1   
     5     2    12 1   
     6     2    13 1   
     7     3     4 ar  
     8     3     8 ar  
     9     3    14 1   
    10     4     5 ar  
    11     4    15 1   
    12     5     6 ar  
    13     6     7 ar  
    14     6    16 1   
    15     7     8 ar  
    16     7    17 1   
    17     8    18 1   
    18     9    10 2   
@<TRIPOS>SUBSTRUCTURE
     1 URS         1 TEMP              0 ****  ****    0 ROOT
