@<TRIPOS>MOLECULE
URS
   18    18     1     0     0
SMALL
abcg2


@<TRIPOS>ATOM
      1 N1          -0.9450     0.3270     0.8440 ns         1 URS      -0.370100
      2 N2          -1.0320     0.2440     3.1020 nt         1 URS      -0.558000
      3 C1          -0.8590    -0.4860    -2.7440 ca         1 URS      -0.096500
      4 C2          -1.2790    -0.3880    -1.4250 ca         1 URS      -0.110000
      5 C3          -0.4510     0.1890    -0.4670 ca         1 URS       0.055600
      6 C4           0.7990     0.6770    -0.8390 ca         1 URS      -0.110000
      7 C5           1.2180     0.5610    -2.1560 ca         1 URS      -0.096500
      8 C6           0.3950    -0.0200    -3.1140 ca         1 URS      -0.112000
      9 C7          -0.3240     0.0010     1.9980 cs         1 URS       0.485400
     10 S1           1.2070    -0.6860     2.0890 s          1 URS      -0.650400
     11 H1N         -1.9230     0.5690     0.9070 hn         1 URS       0.305500
     12 H2N2        -0.6350     0.0240     3.9980 hn         1 URS       0.327500
     13 H1N2        -1.9400     0.6810     3.0870 hn         1 URS       0.327500
     14 H1          -1.5140    -0.9340    -3.4800 ha         1 URS       0.117000
     15 H2          -2.2530    -0.7640    -1.1360 ha         1 URS       0.125500
     16 H4           1.4370     1.1490    -0.1060 ha         1 URS       0.125500
     17 H5           2.1910     0.9420    -2.4370 ha         1 URS       0.117000
     18 H6           0.7250    -0.0990    -4.1410 ha         1 URS       0.116000
@<TRIPOS>BOND
     1     1     5 1   
     2     1     9 1   
     3     1    11 1   
     4     2     9 1   
     5     2    12 1   
     6     2    13 1   
     7     3     4 ar  
     8     3     8 ar  
     9     3    14 1   
    10     4     5 ar  
    11     4    15 1   
    12     5     6 ar  
    13     6     7 ar  
    14     6    16 1   
    15     7     8 ar  
    16     7    17 1   
    17     8    18 1   
    18     9    10 2   
@<TRIPOS>SUBSTRUCTURE
     1 URS         1 TEMP              0 ****  ****    0 ROOT
