@<TRIPOS>MOLECULE
URV
   23    22     1     0     0
SMALL
No Charge or Current Charge


@<TRIPOS>ATOM
      1 CA         -30.5870    35.5720   -15.5350 c3         1 URV       0.118500
      2 C          -29.4980    37.6340   -13.2230 c          1 URV       0.722000
      3 O          -30.6670    37.9700   -13.2500 o          1 URV      -0.743500
      4 CB         -31.6000    34.4990   -16.0480 c3         1 URV      -0.049700
      5 CG1        -31.0170    33.0620   -16.1170 c3         1 URV      -0.082100
      6 CG2        -32.9250    34.5140   -15.2490 c3         1 URV      -0.082100
      7 C2         -30.0850    35.3300   -14.0750 c3         1 URV       0.082000
      8 N1         -29.4400    35.7090   -16.4690 n8         1 URV      -1.010200
      9 N2         -29.1550    36.3640   -13.5930 ns         1 URV      -0.555900
     10 OXT        -28.5880    38.3550   -12.8670 o          1 URV      -0.743500
     11 H1         -31.1150    36.5380   -15.5320 h1         1 URV       0.084700
     12 H2         -31.8630    34.7800   -17.0760 hc         1 URV       0.041700
     13 H3         -31.7460    32.3750   -16.5630 hc         1 URV       0.024700
     14 H4         -30.1100    33.0280   -16.7330 hc         1 URV       0.024700
     15 H5         -30.7690    32.6860   -15.1170 hc         1 URV       0.024700
     16 H6         -33.3440    35.5270   -15.2110 hc         1 URV       0.024700
     17 H7         -33.6670    33.8600   -15.7230 hc         1 URV       0.024700
     18 H8         -32.7750    34.1630   -14.2210 hc         1 URV       0.024700
     19 H9         -30.9410    35.2900   -13.3900 h1         1 URV       0.028700
     20 H10        -29.5690    34.3630   -14.0180 h1         1 URV       0.028700
     21 H11        -28.7480    36.3210   -16.0210 hn         1 URV       0.386500
     22 H12        -28.9560    34.8060   -16.5240 hn         1 URV       0.386500
     23 H14        -28.1730    36.1360   -13.5320 hn         1 URV       0.240500
@<TRIPOS>BOND
     1     1     4 1   
     2     1     7 1   
     3     1     8 1   
     4     1    11 1   
     5     2     3 1   
     6     2     9 1   
     7     2    10 1   
     8     4     5 1   
     9     4     6 1   
    10     4    12 1   
    11     5    13 1   
    12     5    14 1   
    13     5    15 1   
    14     6    16 1   
    15     6    17 1   
    16     6    18 1   
    17     7     9 1   
    18     7    19 1   
    19     7    20 1   
    20     8    21 1   
    21     8    22 1   
    22     9    23 1   
@<TRIPOS>SUBSTRUCTURE
     1 URV         1 TEMP              0 ****  ****    0 ROOT
