@<TRIPOS>MOLECULE
URV
   23    22     1     0     0
SMALL
abcg2


@<TRIPOS>ATOM
      1 CA         -30.5260    35.5390   -15.5060 c3         1 URV       0.118500
      2 C          -29.5900    37.5760   -13.2130 c          1 URV       0.722000
      3 O          -30.8130    37.7590   -13.0310 o          1 URV      -0.743500
      4 CB         -31.5570    34.5260   -16.0310 c3         1 URV      -0.049700
      5 CG1        -31.0320    33.0930   -16.1040 c3         1 URV      -0.082100
      6 CG2        -32.8630    34.5760   -15.2420 c3         1 URV      -0.082100
      7 C2         -30.1020    35.2860   -14.0490 c3         1 URV       0.082000
      8 N1         -29.3990    35.6210   -16.4300 n8         1 URV      -1.010200
      9 N2         -29.1810    36.2620   -13.5210 ns         1 URV      -0.555900
     10 OXT        -28.6750    38.4230   -13.1170 o          1 URV      -0.743500
     11 H1         -31.0150    36.5190   -15.5280 h1         1 URV       0.084700
     12 H2         -31.7820    34.8420   -17.0560 hc         1 URV       0.041700
     13 H3         -31.7760    32.4400   -16.5610 hc         1 URV       0.024700
     14 H4         -30.1250    33.0140   -16.7050 hc         1 URV       0.024700
     15 H5         -30.8140    32.6880   -15.1140 hc         1 URV       0.024700
     16 H6         -33.2350    35.5980   -15.1490 hc         1 URV       0.024700
     17 H7         -33.6350    33.9870   -15.7390 hc         1 URV       0.024700
     18 H8         -32.7490    34.1720   -14.2340 hc         1 URV       0.024700
     19 H9         -30.9800    35.2560   -13.4030 h1         1 URV       0.028700
     20 H10        -29.6280    34.3020   -13.9770 h1         1 URV       0.028700
     21 H11        -28.8110    36.4040   -16.1680 hn         1 URV       0.386500
     22 H12        -28.8100    34.8020   -16.3300 hn         1 URV       0.386500
     23 H14        -28.2410    36.1970   -13.8790 hn         1 URV       0.240500
@<TRIPOS>BOND
     1     1     4 1   
     2     1     7 1   
     3     1     8 1   
     4     1    11 1   
     5     2     3 1   
     6     2     9 1   
     7     2    10 1   
     8     4     5 1   
     9     4     6 1   
    10     4    12 1   
    11     5    13 1   
    12     5    14 1   
    13     5    15 1   
    14     6    16 1   
    15     6    17 1   
    16     6    18 1   
    17     7     9 1   
    18     7    19 1   
    19     7    20 1   
    20     8    21 1   
    21     8    22 1   
    22     9    23 1   
@<TRIPOS>SUBSTRUCTURE
     1 URV         1 TEMP              0 ****  ****    0 ROOT
