@<TRIPOS>MOLECULE
US0
   42    44     1     0     0
SMALL
abcg2


@<TRIPOS>ATOM
      1 N2          28.5990    22.2970    -0.0710 na         1 US0       0.009800
      2 C2          26.5610    21.7750    -0.6480 cc         1 US0      -0.003400
      3 N1          25.3780    21.1810    -1.0660 ns         1 US0      -0.370100
      4 C5          25.5650    24.1180    -0.2480 c          1 US0       0.541600
      5 C6          24.9330    26.4600     0.2200 c6         1 US0       0.110700
      6 C7          25.0460    27.3400    -1.0290 c6         1 US0      -0.128400
      7 C8          24.0870    28.5300    -0.9340 c6         1 US0       0.150300
      8 C11         23.8620    19.4670    -1.8550 ca         1 US0      -0.094600
      9 C16         23.5470    18.1100    -1.7740 ca         1 US0      -0.126500
     10 C15         22.2980    17.6940    -2.1890 ca         1 US0       0.185000
     11 C14         21.3430    18.5600    -2.6940 ca         1 US0      -0.171000
     12 C13         21.6980    19.8950    -2.7690 ca         1 US0       0.185000
     13 C12         22.9300    20.3730    -2.3630 ca         1 US0      -0.126500
     14 C4          26.6660    23.1360    -0.2660 cc         1 US0       0.154500
     15 N3          27.9220    23.4320     0.0820 nd         1 US0      -0.503800
     16 C1          25.2320    19.8780    -1.4070 c          1 US0       0.616700
     17 C10         25.1390    27.2970     1.4810 c6         1 US0      -0.128400
     18 C3          27.8380    21.2610    -0.5060 cd         1 US0      -0.184000
     19 C9          24.1780    28.4910     1.4910 c6         1 US0       0.150300
     20 F1          20.7980    20.7680    -3.2710 f          1 US0      -0.171000
     21 F2          21.9880    16.3820    -2.1000 f          1 US0      -0.171000
     22 N4          25.8740    25.3500     0.1810 ns         1 US0      -0.479900
     23 N5          24.2520    29.3240     0.2870 n7         1 US0      -0.846400
     24 O1          26.1560    19.0700    -1.3480 o          1 US0      -0.599100
     25 O2          24.4270    23.7760    -0.6110 o          1 US0      -0.648100
     26 H1          29.5860    22.2720     0.1340 hn         1 US0       0.381000
     27 H2          24.5890    21.8190    -1.0520 hn         1 US0       0.368500
     28 H3          23.9350    26.0180     0.2450 h1         1 US0       0.084700
     29 H4          24.8310    26.7470    -1.9210 hc         1 US0       0.050700
     30 H5          26.0750    27.7050    -1.1130 hc         1 US0       0.050700
     31 H6          24.2130    29.1850    -1.7970 h1         1 US0       0.057450
     32 H7          23.0550    28.1620    -0.9540 h1         1 US0       0.057450
     33 H8          24.2660    17.4000    -1.3930 ha         1 US0       0.153500
     34 H9          20.3720    18.2110    -3.0170 ha         1 US0       0.153000
     35 H10         23.1430    21.4270    -2.4750 ha         1 US0       0.153500
     36 H11         24.9830    26.6790     2.3690 hc         1 US0       0.050700
     37 H12         26.1720    27.6600     1.5060 hc         1 US0       0.050700
     38 H13         28.2410    20.2810    -0.6750 h4         1 US0       0.189000
     39 H14         24.3720    29.1190     2.3620 h1         1 US0       0.057450
     40 H15         23.1510    28.1230     1.5790 h1         1 US0       0.057450
     41 H16         26.8400    25.5320     0.4150 hn         1 US0       0.330500
     42 H17         25.1590    29.7820     0.2600 hn         1 US0       0.402000
@<TRIPOS>BOND
     1     1    15 1   
     2     1    18 1   
     3     1    26 1   
     4     2     3 1   
     5     2    14 1   
     6     2    18 2   
     7     3    16 1   
     8     3    27 1   
     9     4    14 1   
    10     4    22 1   
    11     4    25 2   
    12     5     6 1   
    13     5    17 1   
    14     5    22 1   
    15     5    28 1   
    16     6     7 1   
    17     6    29 1   
    18     6    30 1   
    19     7    23 1   
    20     7    31 1   
    21     7    32 1   
    22     8     9 ar  
    23     8    13 ar  
    24     8    16 1   
    25     9    10 ar  
    26     9    33 1   
    27    10    11 ar  
    28    10    21 1   
    29    11    12 ar  
    30    11    34 1   
    31    12    13 ar  
    32    12    20 1   
    33    13    35 1   
    34    14    15 2   
    35    16    24 2   
    36    17    19 1   
    37    17    36 1   
    38    17    37 1   
    39    18    38 1   
    40    19    23 1   
    41    19    39 1   
    42    19    40 1   
    43    22    41 1   
    44    23    42 1   
@<TRIPOS>SUBSTRUCTURE
     1 US0         1 TEMP              0 ****  ****    0 ROOT
