@<TRIPOS>MOLECULE
US0
   42    44     1     0     0
SMALL
No Charge or Current Charge


@<TRIPOS>ATOM
      1 N2          28.6420    22.2490     0.2430 na         1 US0       0.009800
      2 C2          26.6260    21.7610    -0.4630 cc         1 US0      -0.003400
      3 N1          25.4860    21.1340    -0.9610 ns         1 US0      -0.370100
      4 C5          25.5350    24.0390    -0.1360 c          1 US0       0.541600
      5 C6          24.8690    26.4430     0.3210 c6         1 US0       0.110700
      6 C7          24.7780    27.1120    -1.0720 c6         1 US0      -0.128400
      7 C8          23.8490    28.3470    -1.0340 c6         1 US0       0.150300
      8 C11         23.9140    19.4630    -1.8740 ca         1 US0      -0.094600
      9 C16         23.6590    18.1400    -2.3130 ca         1 US0      -0.126500
     10 C15         22.3880    17.7680    -2.7790 ca         1 US0       0.185000
     11 C14         21.3440    18.6990    -2.8180 ca         1 US0      -0.171000
     12 C13         21.5780    20.0100    -2.3890 ca         1 US0       0.185000
     13 C12         22.8450    20.3980    -1.9200 ca         1 US0      -0.126500
     14 C4          26.7170    23.1130    -0.0600 cc         1 US0       0.154500
     15 N3          27.9300    23.4420     0.3740 nd         1 US0      -0.503800
     16 C1          25.3050    19.8270    -1.3770 c          1 US0       0.616700
     17 C10         25.3190    27.4970     1.3610 c6         1 US0      -0.128400
     18 C3          27.8560    21.2080    -0.2700 cd         1 US0      -0.184000
     19 C9          24.3770    28.7230     1.3490 c6         1 US0       0.150300
     20 F1          20.5740    20.9130    -2.4250 f          1 US0      -0.171000
     21 F2          22.1700    16.5000    -3.1910 f          1 US0      -0.171000
     22 N4          25.8100    25.3190     0.2980 ns         1 US0      -0.479900
     23 N5          24.3040    29.3160    -0.0080 n7         1 US0      -0.846400
     24 O1          26.2100    19.0020    -1.3500 o          1 US0      -0.599100
     25 O2          24.4180    23.7210    -0.5390 o          1 US0      -0.648100
     26 H1          29.6270    22.1880     0.5040 hn         1 US0       0.381000
     27 H2          24.6570    21.7140    -1.0340 hn         1 US0       0.368500
     28 H3          23.8740    26.0640     0.6060 h1         1 US0       0.084700
     29 H4          24.3990    26.3920    -1.8100 hc         1 US0       0.050700
     30 H5          25.7790    27.4120    -1.4130 hc         1 US0       0.050700
     31 H6          23.8340    28.8300    -2.0230 h1         1 US0       0.057450
     32 H7          22.8200    28.0250    -0.8090 h1         1 US0       0.057450
     33 H8          24.4480    17.3920    -2.2960 ha         1 US0       0.153500
     34 H9          20.3620    18.4070    -3.1790 ha         1 US0       0.153000
     35 H10         22.9680    21.4280    -1.6000 ha         1 US0       0.153500
     36 H11         25.3290    27.0520     2.3650 hc         1 US0       0.050700
     37 H12         26.3480    27.8220     1.1510 hc         1 US0       0.050700
     38 H13         28.2360    20.2070    -0.4420 h4         1 US0       0.189000
     39 H14         24.7400    29.4760     2.0650 h1         1 US0       0.057450
     40 H15         23.3710    28.4170     1.6740 h1         1 US0       0.057450
     41 H16         26.7620    25.4750     0.6110 hn         1 US0       0.330500
     42 H17         25.2430    29.6410    -0.2680 hn         1 US0       0.402000
@<TRIPOS>BOND
     1     1    15 1   
     2     1    18 1   
     3     1    26 1   
     4     2     3 1   
     5     2    14 1   
     6     2    18 2   
     7     3    16 1   
     8     3    27 1   
     9     4    14 1   
    10     4    22 1   
    11     4    25 2   
    12     5     6 1   
    13     5    17 1   
    14     5    22 1   
    15     5    28 1   
    16     6     7 1   
    17     6    29 1   
    18     6    30 1   
    19     7    23 1   
    20     7    31 1   
    21     7    32 1   
    22     8     9 ar  
    23     8    13 ar  
    24     8    16 1   
    25     9    10 ar  
    26     9    33 1   
    27    10    11 ar  
    28    10    21 1   
    29    11    12 ar  
    30    11    34 1   
    31    12    13 ar  
    32    12    20 1   
    33    13    35 1   
    34    14    15 2   
    35    16    24 2   
    36    17    19 1   
    37    17    36 1   
    38    17    37 1   
    39    18    38 1   
    40    19    23 1   
    41    19    39 1   
    42    19    40 1   
    43    22    41 1   
    44    23    42 1   
@<TRIPOS>SUBSTRUCTURE
     1 US0         1 TEMP              0 ****  ****    0 ROOT
