@<TRIPOS>MOLECULE
US7
   32    33     1     0     0
SMALL
No Charge or Current Charge


@<TRIPOS>ATOM
      1 N1           9.0240    -6.5200    25.8080 n7         1 US7      -0.858400
      2 C4           9.2540    -2.3720    24.3730 ca         1 US7       0.381000
      3 C5           9.1650    -1.2970    25.2770 ca         1 US7      -0.206500
      4 C6           9.2760     0.0280    24.8270 ca         1 US7       0.028000
      5 C7          10.2360    -4.6940    24.5000 c6         1 US7       0.209300
      6 C8           9.7390    -6.1790    24.5430 c6         1 US7       0.146300
      7 C10          8.3750    -4.0630    26.0490 c6         1 US7       0.209300
      8 O1           8.9800     2.8820    23.8450 o          1 US7      -0.530500
      9 O            9.2840     2.0330    21.4490 o          1 US7      -0.530500
     10 C           11.3880     2.2960    22.9910 c3         1 US7      -0.338100
     11 C1           9.4740     0.2900    23.4580 ca         1 US7      -0.334500
     12 C3           9.4540    -2.1000    23.0090 ca         1 US7      -0.206500
     13 C2           9.5650    -0.7790    22.5470 ca         1 US7       0.028000
     14 N            9.1440    -3.7130    24.8090 nh         1 US7      -0.803400
     15 C9           7.9110    -5.5590    26.0640 c6         1 US7       0.146300
     16 H1           8.6380    -7.4710    25.7320 hn         1 US7       0.418000
     17 H3           9.0220    -1.4800    26.3360 ha         1 US7       0.118000
     18 H4           9.2100     0.8440    25.5470 ha         1 US7       0.132000
     19 H5          11.0520    -4.5770    25.2280 h1         1 US7       0.050450
     20 H6          10.6650    -4.5040    23.5060 h1         1 US7       0.050450
     21 H7           9.0610    -6.3440    23.6920 h1         1 US7       0.042450
     22 H8          10.5970    -6.8540    24.4110 h1         1 US7       0.042450
     23 H9           8.9970    -3.8800    26.9370 h1         1 US7       0.050450
     24 H10          7.4820    -3.4260    26.1370 h1         1 US7       0.050450
     25 H11         11.6900     2.1710    24.0360 h1         1 US7       0.100033
     26 H12         11.9040     1.5730    22.3500 h1         1 US7       0.100033
     27 H13         11.5790     3.3200    22.6520 h1         1 US7       0.100033
     28 H14          9.5120    -2.9180    22.2980 ha         1 US7       0.118000
     29 H15          9.7200    -0.5950    21.4850 ha         1 US7       0.132000
     30 H16          7.1380    -5.6930    25.2920 h1         1 US7       0.042450
     31 H17          7.4440    -5.7860    27.0340 h1         1 US7       0.042450
     32 S            9.6280     1.9880    22.8760 sy         1 US7       1.072500
@<TRIPOS>BOND
     1     1     6 1   
     2     1    15 1   
     3     1    16 1   
     4     2     3 ar  
     5     2    12 ar  
     6     2    14 1   
     7     3     4 ar  
     8     3    17 1   
     9     4    11 ar  
    10     4    18 1   
    11     5     6 1   
    12     5    14 1   
    13     5    19 1   
    14     5    20 1   
    15     6    21 1   
    16     6    22 1   
    17     7    14 1   
    18     7    15 1   
    19     7    23 1   
    20     7    24 1   
    21     8    32 2   
    22     9    32 2   
    23    10    25 1   
    24    10    26 1   
    25    10    27 1   
    26    10    32 1   
    27    11    13 ar  
    28    11    32 1   
    29    12    13 ar  
    30    12    28 1   
    31    13    29 1   
    32    15    30 1   
    33    15    31 1   
@<TRIPOS>SUBSTRUCTURE
     1 US7         1 TEMP              0 ****  ****    0 ROOT
