@<TRIPOS>MOLECULE
US7
   32    33     1     0     0
SMALL
abcg2


@<TRIPOS>ATOM
      1 N1           9.0700    -6.3830    25.7890 n7         1 US7      -0.858400
      2 C4           9.2930    -2.4390    24.3560 ca         1 US7       0.381000
      3 C5           9.0000    -1.3440    25.1920 ca         1 US7      -0.206500
      4 C6           9.0910    -0.0440    24.7320 ca         1 US7       0.028000
      5 C7          10.0830    -4.7600    24.3080 c6         1 US7       0.209300
      6 C8           9.4670    -6.1410    24.4170 c6         1 US7       0.146300
      7 C10          8.6470    -4.0090    26.1170 c6         1 US7       0.209300
      8 O1           8.7690     2.7170    23.6770 o          1 US7      -0.530500
      9 O            9.4220     1.8720    21.3990 o          1 US7      -0.530500
     10 C           11.3150     2.3130    23.1670 c3         1 US7      -0.338100
     11 C1           9.4870     0.2100    23.4260 ca         1 US7      -0.334500
     12 C3           9.6990    -2.1490    23.0360 ca         1 US7      -0.206500
     13 C2           9.7900    -0.8530    22.5800 ca         1 US7       0.028000
     14 N            9.1610    -3.7350    24.7860 nh         1 US7      -0.803400
     15 C9           8.0720    -5.4130    26.1880 c6         1 US7       0.146300
     16 H1           8.6940    -7.3180    25.8780 hn         1 US7       0.418000
     17 H3           8.7160    -1.4920    26.2230 ha         1 US7       0.118000
     18 H4           8.8610     0.7670    25.4100 ha         1 US7       0.132000
     19 H5          11.0080    -4.7290    24.8980 h1         1 US7       0.050450
     20 H6          10.3520    -4.5800    23.2710 h1         1 US7       0.050450
     21 H7           8.6270    -6.2130    23.7100 h1         1 US7       0.042450
     22 H8          10.2140    -6.8770    24.1140 h1         1 US7       0.042450
     23 H9           9.4290    -3.8830    26.8780 h1         1 US7       0.050450
     24 H10          7.8430    -3.3120    26.3500 h1         1 US7       0.050450
     25 H11         11.5140     2.2360    24.2330 h1         1 US7       0.100033
     26 H12         11.9760     1.6510    22.6110 h1         1 US7       0.100033
     27 H13         11.4510     3.3420    22.8350 h1         1 US7       0.100033
     28 H14          9.9160    -2.9450    22.3380 ha         1 US7       0.118000
     29 H15         10.0850    -0.6780    21.5530 ha         1 US7       0.132000
     30 H16          7.1690    -5.4490    25.5590 h1         1 US7       0.042450
     31 H17          7.7630    -5.6070    27.2160 h1         1 US7       0.042450
     32 S            9.6230     1.8640    22.8490 sy         1 US7       1.072500
@<TRIPOS>BOND
     1     1     6 1   
     2     1    15 1   
     3     1    16 1   
     4     2     3 ar  
     5     2    12 ar  
     6     2    14 1   
     7     3     4 ar  
     8     3    17 1   
     9     4    11 ar  
    10     4    18 1   
    11     5     6 1   
    12     5    14 1   
    13     5    19 1   
    14     5    20 1   
    15     6    21 1   
    16     6    22 1   
    17     7    14 1   
    18     7    15 1   
    19     7    23 1   
    20     7    24 1   
    21     8    32 2   
    22     9    32 2   
    23    10    25 1   
    24    10    26 1   
    25    10    27 1   
    26    10    32 1   
    27    11    13 ar  
    28    11    32 1   
    29    12    13 ar  
    30    12    28 1   
    31    13    29 1   
    32    15    30 1   
    33    15    31 1   
@<TRIPOS>SUBSTRUCTURE
     1 US7         1 TEMP              0 ****  ****    0 ROOT
