@<TRIPOS>MOLECULE
US8
   37    39     1     0     0
SMALL
No Charge or Current Charge


@<TRIPOS>ATOM
      1 N1          22.3180     3.8730   -24.7550 ns         1 US8      -0.382100
      2 C4          25.2300     5.2230   -22.5820 cc         1 US8      -0.218000
      3 C5          26.1000     5.7680   -21.5370 ca         1 US8       0.003000
      4 C6          27.1270     6.6870   -21.8440 ca         1 US8      -0.106000
      5 C7          27.9500     7.2050   -20.8280 ca         1 US8      -0.106500
      6 C8          27.7530     6.8130   -19.4940 ca         1 US8      -0.111000
      7 C10         25.9070     5.3870   -20.1930 ca         1 US8      -0.106000
      8 C13         20.0460     3.1710   -25.3050 c3         1 US8      -0.171100
      9 C15         28.4230     4.8510   -26.2220 cx         1 US8      -0.141400
     10 O1          23.8920     3.8950   -26.9490 o          1 US8      -0.661100
     11 C2          24.6840     4.4560   -24.7460 cd         1 US8      -0.263600
     12 C3          23.4580     4.3300   -24.0970 cc         1 US8      -0.007400
     13 S1          23.5500     4.7750   -22.3830 ss         1 US8       0.314000
     14 C9          26.7300     5.9050   -19.1770 ca         1 US8      -0.106500
     15 C11         25.6800     4.9890   -23.8560 cd         1 US8      -0.067000
     16 C12         21.0460     3.6610   -24.2660 c          1 US8       0.602100
     17 O2          20.7290     3.8460   -23.0990 o          1 US8      -0.583100
     18 N2          26.1040     4.0050   -26.7650 ns         1 US8      -0.466900
     19 C14         27.3550     3.7900   -26.0920 cx         1 US8       0.051700
     20 C16         28.5650     3.5430   -26.9600 cx         1 US8      -0.141400
     21 H7          22.4240     3.6770   -25.7480 hn         1 US8       0.373500
     22 H1          27.2840     7.0170   -22.8670 ha         1 US8       0.114000
     23 H2          28.7370     7.9140   -21.0750 ha         1 US8       0.112500
     24 H3          28.3890     7.2140   -18.7080 ha         1 US8       0.113000
     25 H5          25.1250     4.6800   -19.9310 ha         1 US8       0.114000
     26 H8          19.0460     3.0140   -24.8850 hc         1 US8       0.068700
     27 H9          20.0260     3.8770   -26.1430 hc         1 US8       0.068700
     28 H17         20.4350     2.2610   -25.7750 hc         1 US8       0.068700
     29 H13         28.1890     5.7410   -26.8020 hc         1 US8       0.080200
     30 H4          26.5750     5.6000   -18.1440 ha         1 US8       0.112500
     31 H6          26.6950     5.2260   -24.1460 ha         1 US8       0.137000
     32 H10         26.0820     3.8440   -27.7630 hn         1 US8       0.317500
     33 H11         27.2850     3.2150   -25.1660 h1         1 US8       0.092700
     34 H15         28.4360     3.5540   -28.0400 hc         1 US8       0.080200
     35 H14         29.3080     2.8360   -26.5990 hc         1 US8       0.080200
     36 C1          24.8440     4.1070   -26.2100 c          1 US8       0.655700
     37 H12         29.0690     5.0240   -25.3650 hc         1 US8       0.080200
@<TRIPOS>BOND
     1     1    12 1   
     2     1    16 1   
     3     1    21 1   
     4     2     3 1   
     5     2    13 1   
     6     2    15 2   
     7     3     4 ar  
     8     3     7 ar  
     9     4     5 ar  
    10     4    22 1   
    11     5     6 ar  
    12     5    23 1   
    13     6    14 ar  
    14     6    24 1   
    15     7    14 ar  
    16     7    25 1   
    17     8    16 1   
    18     8    26 1   
    19     8    27 1   
    20     8    28 1   
    21     9    19 1   
    22     9    20 1   
    23     9    29 1   
    24     9    37 1   
    25    10    36 2   
    26    11    12 2   
    27    11    15 1   
    28    11    36 1   
    29    12    13 1   
    30    14    30 1   
    31    15    31 1   
    32    16    17 2   
    33    18    19 1   
    34    18    32 1   
    35    18    36 1   
    36    19    20 1   
    37    19    33 1   
    38    20    34 1   
    39    20    35 1   
@<TRIPOS>SUBSTRUCTURE
     1 US8         1 TEMP              0 ****  ****    0 ROOT
