@<TRIPOS>MOLECULE
US8
   37    39     1     0     0
SMALL
abcg2


@<TRIPOS>ATOM
      1 N1          22.4010     3.8750   -24.8110 ns         1 US8      -0.382100
      2 C4          25.3220     5.2160   -22.7440 cc         1 US8      -0.218000
      3 C5          26.0700     5.7420   -21.6040 ca         1 US8       0.003000
      4 C6          27.1920     6.5510   -21.8110 ca         1 US8      -0.106000
      5 C7          27.9240     7.0360   -20.7400 ca         1 US8      -0.106500
      6 C8          27.5460     6.7360   -19.4370 ca         1 US8      -0.111000
      7 C10         25.6990     5.4470   -20.2890 ca         1 US8      -0.106000
      8 C13         20.0960     3.1690   -24.9890 c3         1 US8      -0.171100
      9 C15         28.3710     4.9230   -26.1730 cx         1 US8      -0.141400
     10 O1          23.9150     3.9520   -27.0140 o          1 US8      -0.661100
     11 C2          24.7810     4.4620   -24.8870 cd         1 US8      -0.263600
     12 C3          23.5640     4.3190   -24.2400 cc         1 US8      -0.007400
     13 S1          23.6470     4.7840   -22.5860 ss         1 US8       0.314000
     14 C9          26.4270     5.9440   -19.2180 ca         1 US8      -0.106500
     15 C11         25.7700     4.9900   -24.0070 cd         1 US8      -0.067000
     16 C12         21.2280     3.6850   -24.1490 c          1 US8       0.602100
     17 O2          21.1310     3.9060   -22.9550 o          1 US8      -0.583100
     18 N2          26.1390     3.9110   -26.8560 ns         1 US8      -0.466900
     19 C14         27.4070     3.7720   -26.2090 cx         1 US8       0.051700
     20 C16         28.6140     3.7600   -27.0840 cx         1 US8      -0.141400
     21 H7          22.4740     3.7270   -25.8150 hn         1 US8       0.373500
     22 H1          27.4870     6.8160   -22.8180 ha         1 US8       0.114000
     23 H2          28.7880     7.6600   -20.9240 ha         1 US8       0.112500
     24 H3          28.1150     7.1200   -18.6010 ha         1 US8       0.113000
     25 H5          24.8450     4.8100   -20.0910 ha         1 US8       0.114000
     26 H8          19.1850     3.7140   -24.7510 hc         1 US8       0.068700
     27 H9          20.2860     3.2460   -26.0580 hc         1 US8       0.068700
     28 H17         19.9220     2.1190   -24.7480 hc         1 US8       0.068700
     29 H13         28.0480     5.8540   -26.6210 hc         1 US8       0.080200
     30 H4          26.1220     5.7010   -18.2080 ha         1 US8       0.112500
     31 H6          26.7840     5.2010   -24.3020 ha         1 US8       0.137000
     32 H10         26.1010     3.6230   -27.8230 hn         1 US8       0.317500
     33 H11         27.4130     3.0970   -25.3600 h1         1 US8       0.092700
     34 H15         28.4680     3.9150   -28.1470 hc         1 US8       0.080200
     35 H14         29.4030     3.0620   -26.8410 hc         1 US8       0.080200
     36 C1          24.9210     4.1000   -26.3120 c          1 US8       0.655700
     37 H12         28.9930     5.0320   -25.2940 hc         1 US8       0.080200
@<TRIPOS>BOND
     1     1    12 1   
     2     1    16 1   
     3     1    21 1   
     4     2     3 1   
     5     2    13 1   
     6     2    15 2   
     7     3     4 ar  
     8     3     7 ar  
     9     4     5 ar  
    10     4    22 1   
    11     5     6 ar  
    12     5    23 1   
    13     6    14 ar  
    14     6    24 1   
    15     7    14 ar  
    16     7    25 1   
    17     8    16 1   
    18     8    26 1   
    19     8    27 1   
    20     8    28 1   
    21     9    19 1   
    22     9    20 1   
    23     9    29 1   
    24     9    37 1   
    25    10    36 2   
    26    11    12 2   
    27    11    15 1   
    28    11    36 1   
    29    12    13 1   
    30    14    30 1   
    31    15    31 1   
    32    16    17 2   
    33    18    19 1   
    34    18    32 1   
    35    18    36 1   
    36    19    20 1   
    37    19    33 1   
    38    20    34 1   
    39    20    35 1   
@<TRIPOS>SUBSTRUCTURE
     1 US8         1 TEMP              0 ****  ****    0 ROOT
