@<TRIPOS>MOLECULE
US9
   44    45     1     0     0
SMALL
No Charge or Current Charge


@<TRIPOS>ATOM
      1 N1           8.2510     6.6580    -5.4300 ns         1 US9      -0.143000
      2 C4           6.7960     3.1850    -5.1540 ca         1 US9      -0.067000
      3 C5           5.8120     3.2430    -6.1670 ca         1 US9       0.059100
      4 C6           4.9980     0.9070    -5.8170 c3         1 US9       0.500000
      5 C7           5.6640     4.4280    -6.9060 ca         1 US9      -0.067000
      6 C8           6.4810     5.5410    -6.6440 ca         1 US9      -0.142500
      7 C10          9.6170     9.2090    -3.3910 c6         1 US9       0.209800
      8 C13         11.5570    10.6350    -3.9360 c6         1 US9       0.199800
      9 C15         11.3380     8.4000    -5.1480 c6         1 US9      -0.070400
     10 C1           9.2830     6.9490    -4.5440 c          1 US9       0.607100
     11 C2           7.4630     5.4920    -5.6370 ca         1 US9      -0.010000
     12 C3           7.6130     4.3010    -4.8930 ca         1 US9      -0.142500
     13 F1           4.7320     1.0140    -4.4940 f          1 US9      -0.108667
     14 F2           6.1920     0.2860    -5.9530 f          1 US9      -0.108667
     15 F3           4.0640     0.0820    -6.3390 f          1 US9      -0.108667
     16 C9           9.8660     8.3680    -4.6630 c6         1 US9      -0.142700
     17 N2          10.1160    10.5990    -3.5660 n3         1 US9      -0.750500
     18 S1           9.6640    11.6940    -2.3130 s6         1 US9       1.218100
     19 C11         10.5790    11.1430    -0.8560 c3         1 US9      -0.345400
     20 C12         10.2930    12.0000     0.4000 c3         1 US9      -0.058100
     21 O3          10.1440    13.0180    -2.7230 o          1 US9      -0.535500
     22 O4           8.2290    11.4960    -2.0860 o          1 US9      -0.535500
     23 C14         11.8220     9.8630    -5.2510 c6         1 US9      -0.074400
     24 H1           8.0130     7.4230    -6.0480 hn         1 US9       0.155000
     25 H2           6.9450     2.2900    -4.5580 ha         1 US9       0.138000
     26 H3           4.9100     4.4820    -7.6870 ha         1 US9       0.138000
     27 H4           6.3460     6.4480    -7.2300 ha         1 US9       0.138500
     28 H5           8.5370     9.2040    -3.1800 h1         1 US9       0.069700
     29 H6          10.1140     8.7230    -2.5370 h1         1 US9       0.069700
     30 H7          12.1740    10.2000    -3.1350 h1         1 US9       0.057700
     31 H8          11.8970    11.6710    -4.0780 h1         1 US9       0.057700
     32 H9          11.4340     7.9000    -6.1220 hc         1 US9       0.054700
     33 H10         11.9760     7.8480    -4.4430 hc         1 US9       0.054700
     34 H11          8.3550     4.2150    -4.1060 ha         1 US9       0.138500
     35 H12          9.2830     8.8610    -5.4540 hc         1 US9       0.074700
     36 H13         10.2930    10.1020    -0.6800 h1         1 US9       0.087200
     37 H14         11.6420    11.1930    -1.1150 h1         1 US9       0.087200
     38 H15         10.8700    11.6280     1.2550 hc         1 US9       0.052033
     39 H16         10.5710    13.0480     0.2330 hc         1 US9       0.052033
     40 H17          9.2290    11.9620     0.6670 hc         1 US9       0.052033
     41 H18         12.8930     9.8900    -5.4890 hc         1 US9       0.058200
     42 H19         11.3050    10.3690    -6.0780 hc         1 US9       0.058200
     43 O2           4.9720     2.1880    -6.4810 os         1 US9      -0.397100
     44 O1           9.7230     6.1610    -3.7160 o          1 US9      -0.580100
@<TRIPOS>BOND
     1     1    10 1   
     2     1    11 1   
     3     1    24 1   
     4     2     3 ar  
     5     2    12 ar  
     6     2    25 1   
     7     3     5 ar  
     8     3    43 1   
     9     4    13 1   
    10     4    14 1   
    11     4    15 1   
    12     4    43 1   
    13     5     6 ar  
    14     5    26 1   
    15     6    11 ar  
    16     6    27 1   
    17     7    16 1   
    18     7    17 1   
    19     7    28 1   
    20     7    29 1   
    21     8    17 1   
    22     8    23 1   
    23     8    30 1   
    24     8    31 1   
    25     9    16 1   
    26     9    23 1   
    27     9    32 1   
    28     9    33 1   
    29    10    16 1   
    30    10    44 2   
    31    11    12 ar  
    32    12    34 1   
    33    16    35 1   
    34    17    18 1   
    35    18    19 1   
    36    18    21 2   
    37    18    22 2   
    38    19    20 1   
    39    19    36 1   
    40    19    37 1   
    41    20    38 1   
    42    20    39 1   
    43    20    40 1   
    44    23    41 1   
    45    23    42 1   
@<TRIPOS>SUBSTRUCTURE
     1 US9         1 TEMP              0 ****  ****    0 ROOT
