@<TRIPOS>MOLECULE
US9
   44    45     1     0     0
SMALL
abcg2


@<TRIPOS>ATOM
      1 N1           8.0610     6.6730    -5.3150 ns         1 US9      -0.143000
      2 C4           7.3290     3.0280    -5.1400 ca         1 US9      -0.067000
      3 C5           6.4810     2.9230    -6.2260 ca         1 US9       0.059100
      4 C6           4.8290     1.2450    -6.1030 c3         1 US9       0.500000
      5 C7           6.1500     4.0260    -6.9960 ca         1 US9      -0.067000
      6 C8           6.6830     5.2590    -6.6600 ca         1 US9      -0.142500
      7 C10          9.6220     9.1550    -3.1570 c6         1 US9       0.209800
      8 C13         11.4230    10.5910    -4.0400 c6         1 US9       0.199800
      9 C15         10.7250     8.5550    -5.3440 c6         1 US9      -0.070400
     10 C1           8.9660     7.0720    -4.3770 c          1 US9       0.607100
     11 C2           7.5460     5.3920    -5.5660 ca         1 US9      -0.010000
     12 C3           7.8640     4.2650    -4.8010 ca         1 US9      -0.142500
     13 F1           3.8050     2.0480    -6.4540 f          1 US9      -0.108667
     14 F2           4.8230     1.1840    -4.7560 f          1 US9      -0.108667
     15 F3           4.5770     0.0210    -6.5750 f          1 US9      -0.108667
     16 C9           9.4180     8.5140    -4.5300 c6         1 US9      -0.142700
     17 N2          10.1270    10.5250    -3.3370 n3         1 US9      -0.750500
     18 S1           9.8540    11.5940    -2.1220 s6         1 US9       1.218100
     19 C11         10.8710    11.0790    -0.7430 c3         1 US9      -0.345400
     20 C12         10.7130    11.9900     0.4680 c3         1 US9      -0.058100
     21 O3          10.3200    12.8870    -2.5770 o          1 US9      -0.535500
     22 O4           8.4650    11.4620    -1.7380 o          1 US9      -0.535500
     23 C14         11.2640     9.9800    -5.4250 c6         1 US9      -0.074400
     24 H1           7.7560     7.3870    -5.9600 hn         1 US9       0.155000
     25 H2           7.5770     2.1490    -4.5610 ha         1 US9       0.138000
     26 H3           5.4920     3.9200    -7.8480 ha         1 US9       0.138000
     27 H4           6.4380     6.1300    -7.2560 ha         1 US9       0.138500
     28 H5           8.6810     9.1970    -2.6160 h1         1 US9       0.069700
     29 H6          10.3330     8.5580    -2.5780 h1         1 US9       0.069700
     30 H7          12.1830    10.0410    -3.4700 h1         1 US9       0.057700
     31 H8          11.7260    11.6310    -4.1080 h1         1 US9       0.057700
     32 H9          10.5490     8.1550    -6.3440 hc         1 US9       0.054700
     33 H10         11.4600     7.9100    -4.8560 hc         1 US9       0.054700
     34 H11          8.5250     4.3560    -3.9570 ha         1 US9       0.138500
     35 H12          8.6540     9.0850    -5.0630 hc         1 US9       0.074700
     36 H13         10.5730    10.0530    -0.5220 h1         1 US9       0.087200
     37 H14         11.8960    11.0730    -1.1160 h1         1 US9       0.087200
     38 H15         11.3520    11.6240     1.2730 hc         1 US9       0.052033
     39 H16         11.0100    13.0120     0.2340 hc         1 US9       0.052033
     40 H17          9.6830    11.9950     0.8250 hc         1 US9       0.052033
     41 H18         12.2340     9.9870    -5.9260 hc         1 US9       0.058200
     42 H19         10.5840    10.6040    -6.0120 hc         1 US9       0.058200
     43 O2           6.0070     1.6480    -6.6070 os         1 US9      -0.397100
     44 O1           9.4250     6.3350    -3.5110 o          1 US9      -0.580100
@<TRIPOS>BOND
     1     1    10 1   
     2     1    11 1   
     3     1    24 1   
     4     2     3 ar  
     5     2    12 ar  
     6     2    25 1   
     7     3     5 ar  
     8     3    43 1   
     9     4    13 1   
    10     4    14 1   
    11     4    15 1   
    12     4    43 1   
    13     5     6 ar  
    14     5    26 1   
    15     6    11 ar  
    16     6    27 1   
    17     7    16 1   
    18     7    17 1   
    19     7    28 1   
    20     7    29 1   
    21     8    17 1   
    22     8    23 1   
    23     8    30 1   
    24     8    31 1   
    25     9    16 1   
    26     9    23 1   
    27     9    32 1   
    28     9    33 1   
    29    10    16 1   
    30    10    44 2   
    31    11    12 ar  
    32    12    34 1   
    33    16    35 1   
    34    17    18 1   
    35    18    19 1   
    36    18    21 2   
    37    18    22 2   
    38    19    20 1   
    39    19    36 1   
    40    19    37 1   
    41    20    38 1   
    42    20    39 1   
    43    20    40 1   
    44    23    41 1   
    45    23    42 1   
@<TRIPOS>SUBSTRUCTURE
     1 US9         1 TEMP              0 ****  ****    0 ROOT
