@<TRIPOS>MOLECULE
USA
   12    12     1     0     0
SMALL
No Charge or Current Charge


@<TRIPOS>ATOM
      1 N1           5.3130    -3.2820    21.8080 na         1 USA      -0.280500
      2 N            6.1740    -5.1700    19.5870 n2         1 USA      -0.736100
      3 C            6.9370    -4.2310    20.0740 ce         1 USA       0.398200
      4 C1           6.5350    -3.2990    21.1580 cc         1 USA       0.280200
      5 N2           7.3140    -2.3420    21.6540 nd         1 USA      -0.641000
      6 C3           6.5820    -1.7030    22.6340 cd         1 USA       0.233900
      7 C2           5.3400    -2.2690    22.7460 cc         1 USA      -0.218000
      8 H1           4.5360    -3.9070    21.6240 hn         1 USA       0.353000
      9 H2           5.2600    -5.1730    20.0580 hn         1 USA       0.360400
     10 H3           7.9490    -4.0770    19.6940 h4         1 USA       0.046800
     11 H5           6.9890    -0.8740    23.2020 h4         1 USA       0.043100
     12 H6           4.5100    -2.0310    23.4000 h4         1 USA       0.161000
@<TRIPOS>BOND
     1     1     4 1   
     2     1     7 1   
     3     1     8 1   
     4     2     3 2   
     5     2     9 1   
     6     3     4 1   
     7     3    10 1   
     8     4     5 2   
     9     5     6 1   
    10     6     7 2   
    11     6    11 1   
    12     7    12 1   
@<TRIPOS>SUBSTRUCTURE
     1 USA         1 TEMP              0 ****  ****    0 ROOT
