@<TRIPOS>MOLECULE
USA
   12    12     1     0     0
SMALL
abcg2


@<TRIPOS>ATOM
      1 N1           5.3150    -3.2700    21.8170 na         1 USA      -0.280500
      2 N            6.2170    -5.1480    19.5880 n2         1 USA      -0.736100
      3 C            6.8900    -4.2120    20.1150 ce         1 USA       0.398200
      4 C1           6.5080    -3.2920    21.1780 cc         1 USA       0.280200
      5 N2           7.3060    -2.3560    21.6470 nd         1 USA      -0.641000
      6 C3           6.6020    -1.7160    22.6130 cd         1 USA       0.233900
      7 C2           5.3540    -2.2730    22.7350 cc         1 USA      -0.218000
      8 H1           4.5240    -3.8740    21.6530 hn         1 USA       0.353000
      9 H2           5.2860    -5.2390    19.9900 hn         1 USA       0.360400
     10 H3           7.9010    -4.0390    19.7500 h4         1 USA       0.046800
     11 H5           7.0140    -0.8920    23.1740 h4         1 USA       0.043100
     12 H6           4.5210    -2.0480    23.3780 h4         1 USA       0.161000
@<TRIPOS>BOND
     1     1     4 1   
     2     1     7 1   
     3     1     8 1   
     4     2     3 2   
     5     2     9 1   
     6     3     4 1   
     7     3    10 1   
     8     4     5 2   
     9     5     6 1   
    10     6     7 2   
    11     6    11 1   
    12     7    12 1   
@<TRIPOS>SUBSTRUCTURE
     1 USA         1 TEMP              0 ****  ****    0 ROOT
