@<TRIPOS>MOLECULE
USC
   24    24     1     0     0
SMALL
bcc


@<TRIPOS>ATOM
      1 CAG         -2.8360    -1.3500     1.3290 c3         1 USC      -0.275300
      2 OAI          1.9270    -3.4760    -0.1680 o          1 USC      -0.844050
      3 OAJ          1.2220     3.6390    -0.0840 o          1 USC      -0.844050
      4 OAO         -4.3180    -0.2570    -0.5550 o          1 USC      -0.634300
      5 OAP         -2.8140     1.2180     0.8140 o          1 USC      -0.634300
      6 CBG          0.2820    -1.2530    -0.4770 ca         1 USC      -0.108500
      7 CBH          0.0410     1.1450    -0.4530 ca         1 USC      -0.108500
      8 CBI          2.1630     0.1380     0.0240 ca         1 USC      -0.054000
      9 O2           3.6940    -2.1940     0.2830 o          1 USC      -0.844050
     10 O1           3.2000     2.7150     0.3570 o          1 USC      -0.844050
     11 NBU         -1.8750    -0.2440    -1.0040 nu         1 USC      -0.640500
     12 CBX          2.4950    -2.3800     0.0000 c          1 USC       0.927200
     13 CBY          1.9900     2.6690     0.0690 c          1 USC       0.927200
     14 CCF         -0.5060    -0.1190    -0.6290 ca         1 USC      -0.013400
     15 CCG          1.6300    -1.1340    -0.1560 ca         1 USC      -0.168600
     16 CCH          1.3830     1.2820    -0.1170 ca         1 USC      -0.168600
     17 SCT         -3.0590    -0.0460     0.1410 s6         1 USC       1.199900
     18 HAG         -2.9540    -2.3110     0.8350 h1         1 USC       0.093367
     19 HAGA        -1.8450    -1.2710     1.7710 h1         1 USC       0.093367
     20 HAGB        -3.5940    -1.2310     2.1010 h1         1 USC       0.093367
     21 HBG         -0.1500    -2.2360    -0.6170 ha         1 USC       0.135000
     22 HBH         -0.5710     2.0250    -0.5950 ha         1 USC       0.135000
     23 HBI          3.2100     0.2410     0.2730 ha         1 USC       0.167000
     24 HNBU        -2.0740    -1.0350    -1.6080 hn         1 USC       0.409800
@<TRIPOS>BOND
     1     1    17 1   
     2     1    18 1   
     3     1    19 1   
     4     1    20 1   
     5     2    12 1   
     6     3    13 1   
     7     4    17 2   
     8     5    17 2   
     9     6    14 ar  
    10     6    15 ar  
    11     6    21 1   
    12     7    14 ar  
    13     7    16 ar  
    14     7    22 1   
    15     8    15 ar  
    16     8    16 ar  
    17     8    23 1   
    18     9    12 1   
    19    10    13 1   
    20    11    14 1   
    21    11    17 1   
    22    11    24 1   
    23    12    15 1   
    24    13    16 1   
@<TRIPOS>SUBSTRUCTURE
     1 USC         1 TEMP              0 ****  ****    0 ROOT
