@<TRIPOS>MOLECULE
USC
   24    24     1     0     0
SMALL
No Charge or Current Charge


@<TRIPOS>ATOM
      1 CAG         -3.0730    -0.1530     1.5790 c3         1 USC      -0.386100
      2 OAI          2.5290    -3.4320    -1.2930 o          1 USC      -0.738750
      3 OAJ          0.9210     3.1640     1.0590 o          1 USC      -0.738750
      4 OAO         -4.2790    -1.0270    -0.6090 o          1 USC      -0.563500
      5 OAP         -3.1880     1.2680    -0.6690 o          1 USC      -0.563500
      6 CBG          0.5020    -1.5170    -0.7830 ca         1 USC      -0.090500
      7 CBH         -0.0430     0.7170    -0.0050 ca         1 USC      -0.090500
      8 CBI          2.2740    -0.0260    -0.0450 ca         1 USC      -0.036000
      9 O2           4.0890    -2.1090    -0.6450 o          1 USC      -0.738750
     10 O1           2.9680     2.5360     0.9250 o          1 USC      -0.738750
     11 NBU         -1.8070    -0.8360    -0.7570 nu         1 USC      -0.834100
     12 CBX          2.9100    -2.3560    -0.8540 c          1 USC       0.716600
     13 CBY          1.7720     2.3310     0.7810 c          1 USC       0.716600
     14 CCF         -0.4610    -0.5320    -0.5080 ca         1 USC       0.125000
     15 CCG          1.8780    -1.2820    -0.5560 ca         1 USC      -0.168600
     16 CCH          1.3250     0.9840     0.2350 ca         1 USC      -0.168600
     17 SCT         -3.2050    -0.1200    -0.2000 s6         1 USC       1.169100
     18 HAG         -2.9620    -1.1980     1.8840 h1         1 USC       0.093367
     19 HAGA        -2.1970     0.4380     1.8630 h1         1 USC       0.093367
     20 HAGB        -3.9910     0.2830     1.9850 h1         1 USC       0.093367
     21 HBG          0.1770    -2.4770    -1.1760 ha         1 USC       0.117000
     22 HBH         -0.7750     1.4910     0.1990 ha         1 USC       0.117000
     23 HBI          3.3300     0.1680     0.1360 ha         1 USC       0.149000
     24 HNBU        -2.0540    -1.7820    -1.0130 hn         1 USC       0.465000
@<TRIPOS>BOND
     1     1    17 1   
     2     1    18 1   
     3     1    19 1   
     4     1    20 1   
     5     2    12 1   
     6     3    13 1   
     7     4    17 2   
     8     5    17 2   
     9     6    14 ar  
    10     6    15 ar  
    11     6    21 1   
    12     7    14 ar  
    13     7    16 ar  
    14     7    22 1   
    15     8    15 ar  
    16     8    16 ar  
    17     8    23 1   
    18     9    12 1   
    19    10    13 1   
    20    11    14 1   
    21    11    17 1   
    22    11    24 1   
    23    12    15 1   
    24    13    16 1   
@<TRIPOS>SUBSTRUCTURE
     1 USC         1 TEMP              0 ****  ****    0 ROOT
