@<TRIPOS>MOLECULE
USD
   13    13     1     0     0
SMALL
No Charge or Current Charge


@<TRIPOS>ATOM
      1 N1           5.4950    -3.5000    21.8760 nb         1 USD      -0.166500
      2 C4           7.4160    -1.6880    22.6680 ca         1 USD       0.113400
      3 N            6.0850    -5.0240    19.5520 n2         1 USD      -0.707100
      4 C            6.9330    -4.1480    19.9960 ce         1 USD       0.362200
      5 C1           6.6680    -3.3200    21.2170 ca         1 USD       0.027700
      6 N2           7.6380    -2.4420    21.5710 nb         1 USD      -0.166500
      7 C3           6.2310    -1.8080    23.4120 ca         1 USD      -0.211000
      8 C2           5.2810    -2.7430    22.9720 ca         1 USD       0.113400
      9 H1           8.1970    -0.9840    22.9500 h4         1 USD       0.029100
     10 H2           5.2570    -5.0290    20.1680 hn         1 USD       0.398400
     11 H3           7.8850    -3.9820    19.4860 h4         1 USD       0.037800
     12 H4           6.0560    -1.1990    24.2950 ha         1 USD       0.138000
     13 H5           4.3390    -2.8900    23.4980 h4         1 USD       0.029100
@<TRIPOS>BOND
     1     1     5 ar  
     2     1     8 ar  
     3     2     6 ar  
     4     2     7 ar  
     5     2     9 1   
     6     3     4 2   
     7     3    10 1   
     8     4     5 1   
     9     4    11 1   
    10     5     6 ar  
    11     7     8 ar  
    12     7    12 1   
    13     8    13 1   
@<TRIPOS>SUBSTRUCTURE
     1 USD         1 TEMP              0 ****  ****    0 ROOT
