@<TRIPOS>MOLECULE
USD
   13    13     1     0     0
SMALL
abcg2


@<TRIPOS>ATOM
      1 N1           5.5120    -3.4860    21.8820 nb         1 USD      -0.166500
      2 C4           7.3990    -1.7080    22.6520 ca         1 USD       0.113400
      3 N            6.1100    -4.9980    19.5630 n2         1 USD      -0.707100
      4 C            6.9040    -4.1370    20.0340 ce         1 USD       0.362200
      5 C1           6.6580    -3.3060    21.2400 ca         1 USD       0.027700
      6 N2           7.6150    -2.4510    21.5730 nb         1 USD      -0.166500
      7 C3           6.2380    -1.8160    23.3960 ca         1 USD      -0.211000
      8 C2           5.3040    -2.7420    22.9570 ca         1 USD       0.113400
      9 H1           8.1790    -1.0080    22.9300 h4         1 USD       0.029100
     10 H2           5.2650    -5.0450    20.1330 hn         1 USD       0.398400
     11 H3           7.8590    -3.9620    19.5410 h4         1 USD       0.037800
     12 H4           6.0680    -1.2110    24.2740 ha         1 USD       0.138000
     13 H5           4.3690    -2.8860    23.4850 h4         1 USD       0.029100
@<TRIPOS>BOND
     1     1     5 ar  
     2     1     8 ar  
     3     2     6 ar  
     4     2     7 ar  
     5     2     9 1   
     6     3     4 2   
     7     3    10 1   
     8     4     5 1   
     9     4    11 1   
    10     5     6 ar  
    11     7     8 ar  
    12     7    12 1   
    13     8    13 1   
@<TRIPOS>SUBSTRUCTURE
     1 USD         1 TEMP              0 ****  ****    0 ROOT
