@<TRIPOS>MOLECULE
USE
   52    55     1     0     0
SMALL
bcc


@<TRIPOS>ATOM
      1 C4          25.8940    15.7840     5.3690 ca         1 USE       0.116100
      2 C5          26.9820    15.0410     5.7830 ca         1 USE      -0.105000
      3 C6          27.7020    15.3980     6.9290 ca         1 USE      -0.075800
      4 C7          28.8340    14.5880     7.3740 cc         1 USE       0.227900
      5 C8          29.0750    13.3000     7.0370 cd         1 USE      -0.331200
      6 C10         31.0480    13.3710     8.4680 ca         1 USE      -0.388600
      7 C13         32.5920    14.8780    10.2190 ca         1 USE       0.260100
      8 C15         32.1910    12.8010     9.0710 ca         1 USE       0.298100
      9 C17         31.2910    17.8780     8.8200 c6         1 USE       0.127100
     10 C20         29.3830    18.1970    10.9670 c6         1 USE       0.117100
     11 C21         27.9690    18.0910    11.4970 c3         1 USE       0.149400
     12 C1          27.3160    16.5260     7.6490 ca         1 USE      -0.082000
     13 C2          26.2220    17.2730     7.2410 ca         1 USE      -0.196000
     14 C3          25.5040    16.9120     6.1110 ca         1 USE       0.073100
     15 C9          30.2200    12.6080     7.5590 c          1 USE       0.615900
     16 O1          30.4850    11.4300     7.2680 o          1 USE      -0.599100
     17 C11         30.7220    14.6920     8.7790 ca         1 USE       0.262100
     18 O2          29.6420    15.2590     8.2060 os         1 USE      -0.206200
     19 C12         31.4630    15.4850     9.6510 ca         1 USE      -0.213300
     20 C14         32.9550    13.5600     9.9360 ca         1 USE      -0.334000
     21 O3          32.5380    11.5470     8.8120 oh         1 USE      -0.499100
     22 O4          33.3280    15.6150    11.0570 oh         1 USE      -0.479100
     23 C16         31.0820    16.9010     9.9910 c6         1 USE       0.181400
     24 C18         30.9180    19.2720     9.2910 c6         1 USE       0.153100
     25 C19         29.5090    19.2680     9.8770 c6         1 USE       0.071100
     26 O5          29.7470    16.9360    10.4440 os         1 USE      -0.382600
     27 O7          29.2770    20.5640    10.3890 oh         1 USE      -0.598800
     28 O8          31.0190    20.1620     8.2100 oh         1 USE      -0.579800
     29 O9          32.6370    17.8870     8.4200 oh         1 USE      -0.572800
     30 O10         25.2350    15.4120     4.2550 oh         1 USE      -0.490100
     31 O11         24.4320    17.5770     5.6480 oh         1 USE      -0.511100
     32 H1          27.2760    14.1880     5.1850 ha         1 USE       0.159000
     33 H2          28.3920    12.7680     6.3910 ha         1 USE       0.171000
     34 H3          30.6270    17.6070     7.9880 h1         1 USE       0.054700
     35 H4          30.0570    18.4680    11.7980 h1         1 USE       0.067700
     36 H5          27.6570    19.0820    11.8470 h1         1 USE       0.019200
     37 H6          27.2960    17.8170    10.6720 h1         1 USE       0.019200
     38 H7          27.8490    16.8230     8.5400 ha         1 USE       0.160000
     39 H8          25.9210    18.1430     7.8130 ha         1 USE       0.132000
     40 H9          33.8360    13.1260    10.3950 ha         1 USE       0.158000
     41 H10         31.8690    11.1870     8.1750 ho         1 USE       0.490000
     42 H11         34.0610    15.1010    11.4170 ho         1 USE       0.441000
     43 H12         31.7410    17.2440    10.8000 h1         1 USE       0.067700
     44 H13         31.6140    19.5540    10.1010 h1         1 USE       0.057700
     45 H14         28.7990    19.0330     9.0710 h1         1 USE       0.047700
     46 H15         27.0390    17.1070    12.8770 ho         1 USE       0.404000
     47 H16         28.3430    20.7770    10.3000 ho         1 USE       0.408000
     48 H17         30.7280    21.0270     8.5170 ho         1 USE       0.415000
     49 H18         32.8130    17.0770     7.9310 ho         1 USE       0.410000
     50 H19         24.5170    16.0270     4.0620 ho         1 USE       0.447000
     51 H20         24.2350    18.3500     6.1900 ho         1 USE       0.441000
     52 O6          27.9370    17.1420    12.5340 oh         1 USE      -0.575800
@<TRIPOS>BOND
     1     1     2 ar  
     2     1    14 ar  
     3     1    30 1   
     4     2     3 ar  
     5     2    32 1   
     6     3     4 1   
     7     3    12 ar  
     8     4     5 2   
     9     4    18 1   
    10     5    15 1   
    11     5    33 1   
    12     6     8 ar  
    13     6    15 1   
    14     6    17 ar  
    15     7    19 ar  
    16     7    20 ar  
    17     7    22 1   
    18     8    20 ar  
    19     8    21 1   
    20     9    23 1   
    21     9    24 1   
    22     9    29 1   
    23     9    34 1   
    24    10    11 1   
    25    10    25 1   
    26    10    26 1   
    27    10    35 1   
    28    11    36 1   
    29    11    37 1   
    30    11    52 1   
    31    12    13 ar  
    32    12    38 1   
    33    13    14 ar  
    34    13    39 1   
    35    14    31 1   
    36    15    16 2   
    37    17    18 1   
    38    17    19 ar  
    39    19    23 1   
    40    20    40 1   
    41    21    41 1   
    42    22    42 1   
    43    23    26 1   
    44    23    43 1   
    45    24    25 1   
    46    24    28 1   
    47    24    44 1   
    48    25    27 1   
    49    25    45 1   
    50    27    47 1   
    51    28    48 1   
    52    29    49 1   
    53    30    50 1   
    54    31    51 1   
    55    46    52 1   
@<TRIPOS>SUBSTRUCTURE
     1 USE         1 TEMP              0 ****  ****    0 ROOT
