@<TRIPOS>MOLECULE
USE
   52    55     1     0     0
SMALL
No Charge or Current Charge


@<TRIPOS>ATOM
      1 C4          25.8780    15.7980     5.2540 ca         1 USE       0.116100
      2 C5          27.0340    15.1120     5.6610 ca         1 USE      -0.087000
      3 C6          27.6240    15.3890     6.9150 ca         1 USE      -0.075800
      4 C7          28.8360    14.6990     7.3660 cc         1 USE       0.227900
      5 C8          29.0940    13.3990     7.0000 cd         1 USE      -0.381200
      6 C10         31.0800    13.3920     8.4480 ca         1 USE      -0.388600
      7 C13         32.6290    14.7920    10.3150 ca         1 USE       0.260100
      8 C15         32.1590    12.7680     9.0880 ca         1 USE       0.298100
      9 C17         31.4920    17.9110     8.8330 c6         1 USE       0.150300
     10 C20         29.4650    18.3110    10.9560 c6         1 USE       0.140300
     11 C21         28.0100    18.2010    11.5240 c3         1 USE       0.172600
     12 C1          27.0380    16.3720     7.7420 ca         1 USE      -0.064000
     13 C2          25.8800    17.0580     7.3350 ca         1 USE      -0.178000
     14 C3          25.2970    16.7710     6.0920 ca         1 USE       0.073100
     15 C9          30.2400    12.6720     7.4780 c          1 USE       0.615900
     16 O1          30.4780    11.5230     7.1300 o          1 USE      -0.599100
     17 C11         30.7670    14.7310     8.7430 ca         1 USE       0.262100
     18 O2          29.7440    15.4270     8.1110 os         1 USE      -0.206200
     19 C12         31.5530    15.4460     9.6810 ca         1 USE      -0.213300
     20 C14         32.9270    13.4640    10.0150 ca         1 USE      -0.316000
     21 O3          32.4760    11.4790     8.8200 oh         1 USE      -0.538100
     22 O4          33.4110    15.4400    11.2200 oh         1 USE      -0.518100
     23 C16         31.2360    16.9220    10.0230 c6         1 USE       0.204600
     24 C18         31.0570    19.3520     9.2640 c6         1 USE       0.176300
     25 C19         29.5940    19.3550     9.8020 c6         1 USE       0.094300
     26 O5          29.8630    17.0040    10.4690 os         1 USE      -0.429000
     27 O7          29.2380    20.6910    10.2280 oh         1 USE      -0.721000
     28 O8          31.1530    20.2940     8.1800 oh         1 USE      -0.642000
     29 O9          32.8810    17.8800     8.4260 oh         1 USE      -0.695000
     30 O10         25.3110    15.5300     4.0410 oh         1 USE      -0.529100
     31 O11         24.1690    17.4370     5.6900 oh         1 USE      -0.550100
     32 H1          27.4740    14.3800     4.9890 ha         1 USE       0.141000
     33 H2          28.4290    12.8230     6.3720 ha         1 USE       0.221000
     34 H3          30.8560    17.6170     7.9870 h1         1 USE       0.054700
     35 H4          30.1310    18.5980    11.7840 h1         1 USE       0.067700
     36 H5          27.7250    19.1790    11.9350 h1         1 USE       0.019200
     37 H6          27.3290    17.9870    10.6900 h1         1 USE       0.019200
     38 H7          27.4800    16.5990     8.7110 ha         1 USE       0.142000
     39 H8          25.4440    17.8080     7.9910 ha         1 USE       0.114000
     40 H9          33.7590    12.9590    10.4980 ha         1 USE       0.140000
     41 H10         31.8200    11.1910     8.1340 ho         1 USE       0.529000
     42 H11         34.0880    14.8080    11.5420 ho         1 USE       0.480000
     43 H12         31.8630    17.2500    10.8630 h1         1 USE       0.067700
     44 H13         31.7170    19.6690    10.0860 h1         1 USE       0.057700
     45 H14         28.9300    19.0370     8.9830 h1         1 USE       0.047700
     46 H15         26.9170    17.1660    12.7910 ho         1 USE       0.503000
     47 H16         28.2540    20.7620    10.2100 ho         1 USE       0.507000
     48 H17         30.6140    21.0610     8.4790 ho         1 USE       0.454000
     49 H18         33.0730    16.9600     8.1310 ho         1 USE       0.509000
     50 H19         24.5260    16.1200     3.9710 ho         1 USE       0.486000
     51 H20         23.9090    18.0710     6.3950 ho         1 USE       0.480000
     52 O6          27.8700    17.1930    12.5430 oh         1 USE      -0.698000
@<TRIPOS>BOND
     1     1     2 ar  
     2     1    14 ar  
     3     1    30 1   
     4     2     3 ar  
     5     2    32 1   
     6     3     4 1   
     7     3    12 ar  
     8     4     5 2   
     9     4    18 1   
    10     5    15 1   
    11     5    33 1   
    12     6     8 ar  
    13     6    15 1   
    14     6    17 ar  
    15     7    19 ar  
    16     7    20 ar  
    17     7    22 1   
    18     8    20 ar  
    19     8    21 1   
    20     9    23 1   
    21     9    24 1   
    22     9    29 1   
    23     9    34 1   
    24    10    11 1   
    25    10    25 1   
    26    10    26 1   
    27    10    35 1   
    28    11    36 1   
    29    11    37 1   
    30    11    52 1   
    31    12    13 ar  
    32    12    38 1   
    33    13    14 ar  
    34    13    39 1   
    35    14    31 1   
    36    15    16 2   
    37    17    18 1   
    38    17    19 ar  
    39    19    23 1   
    40    20    40 1   
    41    21    41 1   
    42    22    42 1   
    43    23    26 1   
    44    23    43 1   
    45    24    25 1   
    46    24    28 1   
    47    24    44 1   
    48    25    27 1   
    49    25    45 1   
    50    27    47 1   
    51    28    48 1   
    52    29    49 1   
    53    30    50 1   
    54    31    51 1   
    55    46    52 1   
@<TRIPOS>SUBSTRUCTURE
     1 USE         1 TEMP              0 ****  ****    0 ROOT
