@<TRIPOS>MOLECULE
USH
   39    39     1     0     0
SMALL
bcc


@<TRIPOS>ATOM
      1 N1          22.6660     3.1130   -25.4330 n          1 USH      -0.464800
      2 C4          23.9950     4.0770   -22.8420 c3         1 USH      -0.087100
      3 C5          23.4000     2.9450   -26.6570 c3         1 USH       0.015000
      4 C6          22.5200     3.1560   -27.8900 c          1 USH       0.636100
      5 C7          22.6640     3.4470   -30.3180 ca         1 USH       0.020600
      6 C8          21.6140     2.6610   -30.7690 ca         1 USH      -0.093000
      7 C10         21.6250     3.8150   -32.8700 ca         1 USH      -0.100000
      8 C13         24.8260     6.1470   -31.4400 c3         1 USH       0.128700
      9 O1          21.2340     2.2990   -23.8850 o          1 USH      -0.558100
     10 C1          21.9290     2.1290   -24.8670 c          1 USH       0.680100
     11 C2          22.5790     4.4780   -24.9260 c3         1 USH       0.094000
     12 C3          23.7970     4.8940   -24.1100 c3         1 USH      -0.090400
     13 N2          23.2220     3.2820   -29.0380 ns         1 USH      -0.473100
     14 C9          21.0860     2.8470   -32.0400 ca         1 USH      -0.146000
     15 C11         22.6900     4.5990   -32.4410 ca         1 USH      -0.199000
     16 C12         23.2110     4.4260   -31.1640 ca         1 USH       0.113100
     17 O2          24.2350     5.1320   -30.6520 os         1 USH      -0.333900
     18 O3          21.3070     3.1700   -27.8160 o          1 USH      -0.568100
     19 C14         22.0480     0.7580   -25.5280 c3         1 USH      -0.052000
     20 H5          24.8500     4.4440   -22.2740 hc         1 USH       0.037367
     21 H6          23.1180     4.1300   -22.1970 hc         1 USH       0.037367
     22 H7          24.1800     3.0260   -23.0670 hc         1 USH       0.037367
     23 H9          23.8610     1.9580   -26.7240 h1         1 USH       0.067700
     24 H8          24.2370     3.6470   -26.6680 h1         1 USH       0.067700
     25 H11         21.2100     1.8890   -30.1290 ha         1 USH       0.150000
     26 H13         21.2260     3.9660   -33.8650 ha         1 USH       0.133000
     27 H16         25.6070     6.5930   -30.8300 h1         1 USH       0.043033
     28 H17         25.2760     5.7460   -32.3520 h1         1 USH       0.043033
     29 H15         24.1030     6.9200   -31.7110 h1         1 USH       0.043033
     30 H1          22.4600     5.1500   -25.7790 h1         1 USH       0.063700
     31 H2          21.6780     4.5710   -24.3230 h1         1 USH       0.063700
     32 H3          24.6960     4.8440   -24.7310 hc         1 USH       0.037700
     33 H4          23.6710     5.9490   -23.8540 hc         1 USH       0.037700
     34 H10         24.2240     3.3750   -28.9620 hn         1 USH       0.327500
     35 H12         20.2640     2.2310   -32.3770 ha         1 USH       0.139000
     36 H14         23.0970     5.3460   -33.1090 ha         1 USH       0.137000
     37 H18         21.7280     0.7870   -26.5680 h1         1 USH       0.079700
     38 H19         23.0760     0.3980   -25.4970 h1         1 USH       0.079700
     39 CL1         21.0380    -0.4420   -24.6950 cl         1 USH      -0.149400
@<TRIPOS>BOND
     1     1     3 1   
     2     1    10 1   
     3     1    11 1   
     4     2    12 1   
     5     2    20 1   
     6     2    21 1   
     7     2    22 1   
     8     3     4 1   
     9     3    23 1   
    10     3    24 1   
    11     4    13 1   
    12     4    18 2   
    13     5     6 ar  
    14     5    13 1   
    15     5    16 ar  
    16     6    14 ar  
    17     6    25 1   
    18     7    14 ar  
    19     7    15 ar  
    20     7    26 1   
    21     8    17 1   
    22     8    27 1   
    23     8    28 1   
    24     8    29 1   
    25     9    10 2   
    26    10    19 1   
    27    11    12 1   
    28    11    30 1   
    29    11    31 1   
    30    12    32 1   
    31    12    33 1   
    32    13    34 1   
    33    14    35 1   
    34    15    16 ar  
    35    15    36 1   
    36    16    17 1   
    37    19    37 1   
    38    19    38 1   
    39    19    39 1   
@<TRIPOS>SUBSTRUCTURE
     1 USH         1 TEMP              0 ****  ****    0 ROOT
