@<TRIPOS>MOLECULE
USH
   39    39     1     0     0
SMALL
No Charge or Current Charge


@<TRIPOS>ATOM
      1 N1          22.5980     3.1520   -25.2740 n          1 USH      -0.397800
      2 C4          23.9270     4.0120   -22.5890 c3         1 USH      -0.087100
      3 C5          23.1840     3.5300   -26.5990 c3         1 USH       0.015000
      4 C6          22.2390     3.3930   -27.8150 c          1 USH       0.569100
      5 C7          22.3340     3.8400   -30.3540 ca         1 USH      -0.072000
      6 C8          21.0250     3.4470   -30.7190 ca         1 USH      -0.075000
      7 C10         21.4940     3.9730   -33.0500 ca         1 USH      -0.082000
      8 C13         25.4720     5.1640   -31.9110 c3         1 USH       0.151900
      9 O1          21.8100     1.5170   -23.8560 o          1 USH      -0.558100
     10 C1          22.3960     1.7960   -24.8960 c          1 USH       0.613100
     11 C2          22.1120     4.2640   -24.4190 c3         1 USH       0.094000
     12 C3          23.2320     4.9460   -23.6010 c3         1 USH      -0.090400
     13 N2          22.8160     3.7960   -29.0120 ns         1 USH      -0.147000
     14 C9          20.6120     3.5150   -32.0600 ca         1 USH      -0.128000
     15 C11         22.7960     4.3660   -32.7000 ca         1 USH      -0.181000
     16 C12         23.2200     4.3020   -31.3540 ca         1 USH       0.113100
     17 O2          24.4950     4.6810   -30.9710 os         1 USH      -0.357100
     18 O3          21.0970     2.9560   -27.7110 o          1 USH      -0.568100
     19 C14         22.9620     0.6870   -25.8110 c3         1 USH       0.024600
     20 H5          24.6730     4.5670   -22.0080 hc         1 USH       0.037367
     21 H6          23.1970     3.5850   -21.8910 hc         1 USH       0.037367
     22 H7          24.4400     3.1900   -23.1020 hc         1 USH       0.037367
     23 H9          24.0840     2.9350   -26.7970 h1         1 USH       0.067700
     24 H8          23.5070     4.5780   -26.5640 h1         1 USH       0.067700
     25 H11         20.3130     3.0890   -29.9840 ha         1 USH       0.132000
     26 H13         21.1690     4.0230   -34.0870 ha         1 USH       0.115000
     27 H16         26.4090     5.4060   -31.3940 h1         1 USH       0.043033
     28 H17         25.6910     4.4050   -32.6720 h1         1 USH       0.043033
     29 H15         25.1160     6.0740   -32.4110 h1         1 USH       0.043033
     30 H1          21.6400     5.0180   -25.0630 h1         1 USH       0.063700
     31 H2          21.3320     3.9080   -23.7340 h1         1 USH       0.063700
     32 H3          23.9840     5.3600   -24.2840 hc         1 USH       0.037700
     33 H4          22.8000     5.7950   -23.0580 hc         1 USH       0.037700
     34 H10         23.7690     4.1260   -28.9220 hn         1 USH       0.161000
     35 H12         19.6040     3.2110   -32.3320 ha         1 USH       0.121000
     36 H14         23.4580     4.7170   -33.4860 ha         1 USH       0.119000
     37 H18         22.4760     0.7500   -26.7900 h1         1 USH       0.079700
     38 H19         24.0400     0.8460   -25.9300 h1         1 USH       0.079700
     39 Cl1         22.7250    -1.0160   -25.1870 cl         1 USH      -0.226000
@<TRIPOS>BOND
     1     1     3 1   
     2     1    10 1   
     3     1    11 1   
     4     2    12 1   
     5     2    20 1   
     6     2    21 1   
     7     2    22 1   
     8     3     4 1   
     9     3    23 1   
    10     3    24 1   
    11     4    13 1   
    12     4    18 2   
    13     5     6 ar  
    14     5    13 1   
    15     5    16 ar  
    16     6    14 ar  
    17     6    25 1   
    18     7    14 ar  
    19     7    15 ar  
    20     7    26 1   
    21     8    17 1   
    22     8    27 1   
    23     8    28 1   
    24     8    29 1   
    25     9    10 2   
    26    10    19 1   
    27    11    12 1   
    28    11    30 1   
    29    11    31 1   
    30    12    32 1   
    31    12    33 1   
    32    13    34 1   
    33    14    35 1   
    34    15    16 ar  
    35    15    36 1   
    36    16    17 1   
    37    19    37 1   
    38    19    38 1   
    39    19    39 1   
@<TRIPOS>SUBSTRUCTURE
     1 USH         1 TEMP              0 ****  ****    0 ROOT
