@<TRIPOS>MOLECULE
USI
   45    48     1     0     0
SMALL
abcg2


@<TRIPOS>ATOM
      1 C10         16.2340    66.8390    37.8740 ca         1 USI       0.417900
      2 C13         15.4690    66.8810    40.9180 ca         1 USI      -0.149300
      3 C15         14.7340    64.8530    42.0580 ca         1 USI      -0.129000
      4 C20         16.8120    65.9870    42.7020 ca         1 USI      -0.102800
      5 C21         16.5930    66.9580    41.7160 ca         1 USI      -0.023000
      6 C26         18.2590    63.8130    34.7230 ca         1 USI      -0.155000
      7 C01         20.3050    61.9530    34.2530 c3         1 USI       0.148900
      8 C03         18.2450    62.9530    33.6310 ca         1 USI       0.128100
      9 C04         17.1730    62.9890    32.7360 ca         1 USI      -0.134000
     10 C05         16.1310    63.8730    32.9500 ca         1 USI      -0.088000
     11 C06         16.1320    64.7240    34.0490 ca         1 USI      -0.128000
     12 C07         17.1970    64.6930    34.9430 cp         1 USI      -0.115500
     13 C08         17.2350    65.5720    36.1350 cp         1 USI       0.241500
     14 C09         16.0800    66.0470    36.7170 ca         1 USI      -0.334000
     15 C14         14.5480    65.8280    41.1000 ca         1 USI      -0.085000
     16 C16         15.8760    64.9420    42.8540 ca         1 USI      -0.046200
     17 C18         17.5000    64.6260    44.3460 cc         1 USI      -0.166100
     18 C19         17.8420    65.7610    43.6690 cd         1 USI      -0.235200
     19 C23         18.4840    66.6080    37.7200 ca         1 USI       0.412900
     20 N11         15.1560    67.3430    38.5070 nu         1 USI      -0.924100
     21 N17         16.3230    64.1340    43.8590 na         1 USI      -0.224700
     22 N22         17.4350    67.1200    38.3650 nb         1 USI      -0.316000
     23 N24         19.7030    66.8630    38.2490 nv         1 USI      -1.060900
     24 N25         18.4470    65.8450    36.6300 nb         1 USI      -0.291000
     25 H1          14.0180    64.0510    42.1860 ha         1 USI       0.112000
     26 H2          17.3050    67.7630    41.5730 ha         1 USI       0.119000
     27 H3          19.0810    63.8130    35.4250 ha         1 USI       0.139000
     28 H4          20.9450    61.1640    33.8650 h1         1 USI       0.041033
     29 H5          20.8840    62.8790    34.3080 h1         1 USI       0.041033
     30 H6          19.9820    61.6810    35.2610 h1         1 USI       0.041033
     31 H7          17.1650    62.3240    31.8810 ha         1 USI       0.125000
     32 H8          15.3080    63.9040    32.2480 ha         1 USI       0.113000
     33 H9          15.3140    65.4180    34.1880 ha         1 USI       0.115000
     34 H10         15.0960    65.8000    36.3450 ha         1 USI       0.128000
     35 H11         15.9700    68.6880    39.8750 h1         1 USI       0.058200
     36 H12         14.2490    68.3950    40.0060 h1         1 USI       0.058200
     37 H13         13.6690    65.7820    40.4680 ha         1 USI       0.102000
     38 H14         18.0120    64.1220    45.1500 h4         1 USI       0.210000
     39 H15         18.7210    66.3610    43.8380 ha         1 USI       0.205000
     40 H16         14.2550    67.0390    38.1770 hn         1 USI       0.485000
     41 H17         15.8590    63.3050    44.1930 hn         1 USI       0.348000
     42 H18         20.5140    66.6800    37.6840 hn         1 USI       0.488000
     43 H19         19.7830    67.5990    38.9290 hn         1 USI       0.488000
     44 O02         19.2160    62.0610    33.3590 os         1 USI      -0.345100
     45 C12         15.2110    67.9060    39.8390 c3         1 USI       0.284100
@<TRIPOS>BOND
     1     1    14 ar  
     2     1    20 1   
     3     1    22 ar  
     4     2     5 ar  
     5     2    15 ar  
     6     2    45 1   
     7     3    15 ar  
     8     3    16 ar  
     9     3    25 1   
    10     4     5 ar  
    11     4    16 ar  
    12     4    18 1   
    13     5    26 1   
    14     6     8 ar  
    15     6    12 ar  
    16     6    27 1   
    17     7    28 1   
    18     7    29 1   
    19     7    30 1   
    20     7    44 1   
    21     8     9 ar  
    22     8    44 1   
    23     9    10 ar  
    24     9    31 1   
    25    10    11 ar  
    26    10    32 1   
    27    11    12 ar  
    28    11    33 1   
    29    12    13 1   
    30    13    14 ar  
    31    13    24 ar  
    32    14    34 1   
    33    15    37 1   
    34    16    21 1   
    35    17    18 2   
    36    17    21 1   
    37    17    38 1   
    38    18    39 1   
    39    19    22 ar  
    40    19    23 1   
    41    19    24 ar  
    42    20    40 1   
    43    20    45 1   
    44    21    41 1   
    45    23    42 1   
    46    23    43 1   
    47    35    45 1   
    48    36    45 1   
@<TRIPOS>SUBSTRUCTURE
     1 USI         1 TEMP              0 ****  ****    0 ROOT
