@<TRIPOS>MOLECULE
USI
   45    48     1     0     0
SMALL
No Charge or Current Charge


@<TRIPOS>ATOM
      1 C10         16.3240    67.0000    37.9090 ca         1 USI       0.417900
      2 C13         15.3630    66.9820    40.9520 ca         1 USI      -0.149300
      3 C15         14.4140    65.1330    42.2750 ca         1 USI      -0.129000
      4 C20         16.7330    65.7490    42.5040 ca         1 USI      -0.102800
      5 C21         16.6250    66.7750    41.5580 ca         1 USI      -0.023000
      6 C26         18.3540    63.7670    34.7570 ca         1 USI      -0.155000
      7 C01         20.6050    62.0460    34.0690 c3         1 USI       0.148900
      8 C03         18.2980    62.8470    33.6860 ca         1 USI       0.128100
      9 C04         17.1280    62.7460    32.9200 ca         1 USI      -0.134000
     10 C05         16.0210    63.5560    33.2120 ca         1 USI      -0.088000
     11 C06         16.0780    64.4690    34.2770 ca         1 USI      -0.128000
     12 C07         17.2430    64.5980    35.0800 cp         1 USI      -0.115500
     13 C08         17.3040    65.5790    36.2220 cp         1 USI       0.241500
     14 C09         16.1500    66.0990    36.8570 ca         1 USI      -0.334000
     15 C14         14.2630    66.1580    41.3150 ca         1 USI      -0.085000
     16 C16         15.6770    64.9580    42.8520 ca         1 USI      -0.046200
     17 C18         17.4560    64.2190    44.1010 cc         1 USI      -0.166100
     18 C19         17.8440    65.2790    43.2910 cd         1 USI      -0.235200
     19 C23         18.5680    66.8350    37.6670 ca         1 USI       0.412900
     20 N11         15.2180    67.5270    38.5560 nu         1 USI      -0.924100
     21 N17         16.0860    64.0370    43.8050 na         1 USI      -0.224700
     22 N22         17.5410    67.3820    38.3210 nb         1 USI      -0.316000
     23 N24         19.8010    67.2140    38.0720 nv         1 USI      -1.060900
     24 N25         18.5220    65.9640    36.6540 nb         1 USI      -0.291000
     25 H1          13.5740    64.5000    42.5540 ha         1 USI       0.112000
     26 H2          17.4860    67.3880    41.3000 ha         1 USI       0.119000
     27 H3          19.2560    63.8430    35.3570 ha         1 USI       0.139000
     28 H4          21.3030    61.3180    33.6360 h1         1 USI       0.041033
     29 H5          21.0710    63.0380    34.0130 h1         1 USI       0.041033
     30 H6          20.4530    61.7850    35.1240 h1         1 USI       0.041033
     31 H7          17.0820    62.0400    32.0950 ha         1 USI       0.125000
     32 H8          15.1170    63.4780    32.6110 ha         1 USI       0.113000
     33 H9          15.2080    65.0930    34.4660 ha         1 USI       0.115000
     34 H10         15.1540    65.7970    36.5550 ha         1 USI       0.128000
     35 H11         15.9620    68.8520    40.0420 h1         1 USI       0.058200
     36 H12         14.2160    68.5790    40.0930 h1         1 USI       0.058200
     37 H13         13.2920    66.3150    40.8500 ha         1 USI       0.102000
     38 H14         18.0060    63.6150    44.8190 h4         1 USI       0.210000
     39 H15         18.8500    65.6920    43.2600 ha         1 USI       0.205000
     40 H16         14.3250    67.2040    38.1870 hn         1 USI       0.485000
     41 H17         15.4840    63.3350    44.2260 hn         1 USI       0.348000
     42 H18         20.5900    67.0080    37.4650 hn         1 USI       0.488000
     43 H19         19.8830    68.0340    38.6680 hn         1 USI       0.488000
     44 O02         19.3570    62.0260    33.3520 os         1 USI      -0.345100
     45 C12         15.1830    68.0860    39.9170 c3         1 USI       0.284100
@<TRIPOS>BOND
     1     1    14 ar  
     2     1    20 1   
     3     1    22 ar  
     4     2     5 ar  
     5     2    15 ar  
     6     2    45 1   
     7     3    15 ar  
     8     3    16 ar  
     9     3    25 1   
    10     4     5 ar  
    11     4    16 ar  
    12     4    18 1   
    13     5    26 1   
    14     6     8 ar  
    15     6    12 ar  
    16     6    27 1   
    17     7    28 1   
    18     7    29 1   
    19     7    30 1   
    20     7    44 1   
    21     8     9 ar  
    22     8    44 1   
    23     9    10 ar  
    24     9    31 1   
    25    10    11 ar  
    26    10    32 1   
    27    11    12 ar  
    28    11    33 1   
    29    12    13 1   
    30    13    14 ar  
    31    13    24 ar  
    32    14    34 1   
    33    15    37 1   
    34    16    21 1   
    35    17    18 2   
    36    17    21 1   
    37    17    38 1   
    38    18    39 1   
    39    19    22 ar  
    40    19    23 1   
    41    19    24 ar  
    42    20    40 1   
    43    20    45 1   
    44    21    41 1   
    45    23    42 1   
    46    23    43 1   
    47    35    45 1   
    48    36    45 1   
@<TRIPOS>SUBSTRUCTURE
     1 USI         1 TEMP              0 ****  ****    0 ROOT
