@<TRIPOS>MOLECULE
USJ
   23    24     1     0     0
SMALL
bcc


@<TRIPOS>ATOM
      1 C4           0.7450    12.6030   -36.0770 ca         1 USJ      -0.126500
      2 C5           0.1160    11.5810   -35.3700 ca         1 USJ      -0.126500
      3 C6          -1.0710    11.8190   -34.6870 ca         1 USJ      -0.093500
      4 C7          -1.6020    13.0960   -34.7200 ca         1 USJ      -0.082800
      5 C8          -2.8760    13.6120   -34.1210 c5         1 USJ       0.459100
      6 O1          -0.9310    16.4440   -34.9520 oh         1 USJ      -0.594800
      7 C1          -1.7720    15.3770   -35.2990 c5         1 USJ       0.459100
      8 N           -2.7050    15.0390   -34.2470 n3         1 USJ      -0.826600
      9 C           -3.8750    15.8670   -34.1090 c3         1 USJ       0.184100
     10 O           -3.9490    13.0660   -34.8640 oh         1 USJ      -0.594800
     11 C2          -0.9830    14.1080   -35.4290 ca         1 USJ      -0.082800
     12 C3           0.1990    13.8820   -36.1130 ca         1 USJ      -0.093500
     13 H1           1.6700    12.3990   -36.6010 ha         1 USJ       0.131000
     14 H2           0.5570    10.5930   -35.3550 ha         1 USJ       0.131000
     15 H3          -1.5590    11.0230   -34.1380 ha         1 USJ       0.138000
     16 H4          -2.9990    13.3440   -33.0640 h2         1 USJ       0.044700
     17 H5          -1.3010    17.2610   -35.2980 ho         1 USJ       0.403000
     18 H6          -2.2840    15.6160   -36.2460 h2         1 USJ       0.044700
     19 H8          -4.4100    15.6110   -33.1930 h1         1 USJ       0.029033
     20 H9          -3.5810    16.9130   -34.0190 h1         1 USJ       0.029033
     21 H10         -4.5770    15.7880   -34.9480 h1         1 USJ       0.029033
     22 H11         -4.7580    13.1610   -34.3510 ho         1 USJ       0.403000
     23 H12          0.6890    14.6740   -36.6650 ha         1 USJ       0.138000
@<TRIPOS>BOND
     1     1     2 ar  
     2     1    12 ar  
     3     1    13 1   
     4     2     3 ar  
     5     2    14 1   
     6     3     4 ar  
     7     3    15 1   
     8     4     5 1   
     9     4    11 ar  
    10     5     8 1   
    11     5    10 1   
    12     5    16 1   
    13     6     7 1   
    14     6    17 1   
    15     7     8 1   
    16     7    11 1   
    17     7    18 1   
    18     8     9 1   
    19     9    19 1   
    20     9    20 1   
    21     9    21 1   
    22    10    22 1   
    23    11    12 ar  
    24    12    23 1   
@<TRIPOS>SUBSTRUCTURE
     1 USJ         1 TEMP              0 ****  ****    0 ROOT
