@<TRIPOS>MOLECULE
USJ
   23    24     1     0     0
SMALL
No Charge or Current Charge


@<TRIPOS>ATOM
      1 C4           0.8070    12.5710   -36.0970 ca         1 USJ      -0.108500
      2 C5           0.2110    11.5710   -35.2950 ca         1 USJ      -0.108500
      3 C6          -0.9930    11.8330   -34.6090 ca         1 USJ      -0.075500
      4 C7          -1.5760    13.1040   -34.7440 ca         1 USJ      -0.082800
      5 C8          -2.8480    13.6380   -34.1350 c5         1 USJ       0.482300
      6 O1          -1.1080    16.4570   -35.1290 oh         1 USJ      -0.657000
      7 C1          -1.8420    15.3260   -35.4750 c5         1 USJ       0.482300
      8 N           -2.7150    15.1170   -34.3010 n3         1 USJ      -0.826600
      9 C           -3.9280    15.9610   -34.1950 c3         1 USJ       0.184100
     10 O           -3.9670    13.1960   -34.8690 oh         1 USJ      -0.657000
     11 C2          -0.9960    14.0780   -35.5230 ca         1 USJ      -0.082800
     12 C3           0.2020    13.8400   -36.2170 ca         1 USJ      -0.075500
     13 H1           1.7350    12.3620   -36.6240 ha         1 USJ       0.113000
     14 H2           0.6820    10.5950   -35.2070 ha         1 USJ       0.113000
     15 H3          -1.4610    11.0690   -33.9930 ha         1 USJ       0.120000
     16 H4          -2.9390    13.3530   -33.0780 h2         1 USJ       0.044700
     17 H5          -1.3140    16.4990   -34.1740 ho         1 USJ       0.442000
     18 H6          -2.4030    15.4620   -36.4100 h2         1 USJ       0.044700
     19 H8          -4.4760    15.7370   -33.2700 h1         1 USJ       0.029033
     20 H9          -3.6580    17.0250   -34.1760 h1         1 USJ       0.029033
     21 H10         -4.6000    15.7990   -35.0480 h1         1 USJ       0.029033
     22 H11         -4.7210    13.6680   -34.4660 ho         1 USJ       0.442000
     23 H12          0.6530    14.6170   -36.8300 ha         1 USJ       0.120000
@<TRIPOS>BOND
     1     1     2 ar  
     2     1    12 ar  
     3     1    13 1   
     4     2     3 ar  
     5     2    14 1   
     6     3     4 ar  
     7     3    15 1   
     8     4     5 1   
     9     4    11 ar  
    10     5     8 1   
    11     5    10 1   
    12     5    16 1   
    13     6     7 1   
    14     6    17 1   
    15     7     8 1   
    16     7    11 1   
    17     7    18 1   
    18     8     9 1   
    19     9    19 1   
    20     9    20 1   
    21     9    21 1   
    22    10    22 1   
    23    11    12 ar  
    24    12    23 1   
@<TRIPOS>SUBSTRUCTURE
     1 USJ         1 TEMP              0 ****  ****    0 ROOT
