@<TRIPOS>MOLECULE
USK
   58    61     1     0     0
SMALL
abcg2


@<TRIPOS>ATOM
      1 C10         27.4480     8.6340    -0.0720 ca         1 USK      -0.099000
      2 C15         23.1900     0.6500    -1.4120 c3         1 USK       0.286100
      3 C17         23.4180     3.1220    -2.1740 cc         1 USK       0.214900
      4 C21         20.2360     1.7910    -1.2150 c3         1 USK       0.109300
      5 C22         19.3290     1.6670    -2.4330 c3         1 USK      -0.180400
      6 C28         18.3670     1.7180     0.4600 ca         1 USK      -0.135300
      7 C03         24.2240     2.9040     0.9920 cc         1 USK      -0.454500
      8 C04         23.2570     3.8370     1.2230 cd         1 USK       0.014000
      9 C05         23.7420     5.1510     1.0460 cd         1 USK      -0.148000
     10 C06         25.0630     5.1930     0.6840 cc         1 USK      -0.114000
     11 C07         25.8910     6.3690     0.4200 ca         1 USK      -0.027000
     12 C08         25.6490     7.5590     1.1100 ca         1 USK      -0.091000
     13 C09         26.4200     8.6830     0.8610 ca         1 USK      -0.109000
     14 C11         27.6990     7.4540    -0.7580 ca         1 USK      -0.109000
     15 C12         26.9240     6.3290    -0.5180 ca         1 USK      -0.091000
     16 C16         22.7190     2.0290    -1.7250 cd         1 USK      -0.203300
     17 C23         20.0200     0.9490    -3.5700 c          1 USK       0.605100
     18 C27         19.5530     2.4950    -0.0390 c3         1 USK      -0.031100
     19 C29         18.5380     0.5740     1.2340 ca         1 USK      -0.064500
     20 C30         17.4550    -0.1730     1.6700 ca         1 USK      -0.176000
     21 C31         16.1600     0.2150     1.3320 ca         1 USK       0.144100
     22 C32         15.9710     1.3610     0.5630 ca         1 USK      -0.176000
     23 C33         17.0670     2.0950     0.1370 ca         1 USK      -0.064500
     24 N14         24.3100     0.6870    -0.4790 n7         1 USK      -0.895300
     25 N18         22.5690     4.1570    -2.2840 nc         1 USK      -0.357000
     26 N19         21.3900     3.7700    -1.9350 nd         1 USK      -0.216800
     27 N20         21.4600     2.4940    -1.5890 na         1 USK       0.129800
     28 N24         19.8480     1.5420    -4.7640 ns         1 USK      -0.376400
     29 O01         22.6750     0.9150     1.4890 o          1 USK      -0.551500
     30 O25         20.2280     0.9000    -5.9040 oh         1 USK      -0.424100
     31 O26         20.6810    -0.0610    -3.4040 o          1 USK      -0.588100
     32 O34         15.0650    -0.4700     1.7190 oh         1 USK      -0.532100
     33 O35         25.1580     0.6330     1.8430 o          1 USK      -0.551500
     34 S13         25.7300     3.6090     0.5760 ss         1 USK       0.335000
     35 H1          28.0530     9.5110    -0.2610 ha         1 USK       0.115000
     36 H2          22.3760     0.0160    -1.0570 h1         1 USK       0.075700
     37 H3          23.5720     0.1850    -2.3200 h1         1 USK       0.075700
     38 H4          24.4680     3.2040    -2.4020 h4         1 USK       0.054100
     39 H5          20.5360     0.7950    -0.8920 h1         1 USK       0.091700
     40 H6          18.9650     2.6530    -2.7280 hc         1 USK       0.085700
     41 H7          18.4530     1.0770    -2.1550 hc         1 USK       0.085700
     42 H8          22.2380     3.5990     1.4880 ha         1 USK       0.148000
     43 H9          23.1300     6.0340     1.1570 ha         1 USK       0.143000
     44 H10         24.8670     7.6010     1.8570 ha         1 USK       0.116500
     45 H11         26.2220     9.5970     1.4050 ha         1 USK       0.116000
     46 H12         28.4950     7.4070    -1.4900 ha         1 USK       0.116000
     47 H13         27.1170     5.4230    -1.0800 ha         1 USK       0.116500
     48 H14         20.2870     2.6090     0.7620 hc         1 USK       0.071700
     49 H15         19.2460     3.4980    -0.3410 hc         1 USK       0.071700
     50 H16         19.5390     0.2580     1.5090 ha         1 USK       0.121500
     51 H17         17.6190    -1.0580     2.2750 ha         1 USK       0.123500
     52 H18         14.9680     1.6730     0.3000 ha         1 USK       0.123500
     53 H19         16.9020     2.9820    -0.4650 ha         1 USK       0.121500
     54 H20         24.8970    -0.1400    -0.5080 hn         1 USK       0.496000
     55 H21         19.1910     2.2970    -4.9030 hn         1 USK       0.341500
     56 H22         21.0970     1.2540    -6.1360 ho         1 USK       0.449000
     57 H23         15.3150    -1.2400     2.2410 ho         1 USK       0.467000
     58 S02         24.0470     1.1720     1.0790 sy         1 USK       1.199600
@<TRIPOS>BOND
     1     1    13 ar  
     2     1    14 ar  
     3     1    35 1   
     4     2    16 1   
     5     2    24 1   
     6     2    36 1   
     7     2    37 1   
     8     3    16 2   
     9     3    25 1   
    10     3    38 1   
    11     4     5 1   
    12     4    18 1   
    13     4    27 1   
    14     4    39 1   
    15     5    17 1   
    16     5    40 1   
    17     5    41 1   
    18     6    18 1   
    19     6    19 ar  
    20     6    23 ar  
    21     7     8 2   
    22     7    34 1   
    23     7    58 1   
    24     8     9 1   
    25     8    42 1   
    26     9    10 2   
    27     9    43 1   
    28    10    11 1   
    29    10    34 1   
    30    11    12 ar  
    31    11    15 ar  
    32    12    13 ar  
    33    12    44 1   
    34    13    45 1   
    35    14    15 ar  
    36    14    46 1   
    37    15    47 1   
    38    16    27 1   
    39    17    28 1   
    40    17    31 2   
    41    18    48 1   
    42    18    49 1   
    43    19    20 ar  
    44    19    50 1   
    45    20    21 ar  
    46    20    51 1   
    47    21    22 ar  
    48    21    32 1   
    49    22    23 ar  
    50    22    52 1   
    51    23    53 1   
    52    24    54 1   
    53    24    58 1   
    54    25    26 2   
    55    26    27 1   
    56    28    30 1   
    57    28    55 1   
    58    29    58 2   
    59    30    56 1   
    60    32    57 1   
    61    33    58 2   
@<TRIPOS>SUBSTRUCTURE
     1 USK         1 TEMP              0 ****  ****    0 ROOT
