@<TRIPOS>MOLECULE
USK
   58    61     1     0     0
SMALL
No Charge or Current Charge


@<TRIPOS>ATOM
      1 C10         27.3970     8.7000     0.1580 ca         1 USK      -0.099000
      2 C15         23.1420     0.7110    -1.6860 c3         1 USK       0.286100
      3 C17         23.3590     3.1950    -2.3880 cc         1 USK       0.214900
      4 C21         20.1650     1.8940    -1.3040 c3         1 USK       0.109300
      5 C22         19.2550     1.5100    -2.5020 c3         1 USK      -0.180400
      6 C28         18.2840     1.8470     0.4430 ca         1 USK      -0.135300
      7 C03         24.2000     2.7890     0.8920 cc         1 USK      -0.454500
      8 C04         23.2750     3.7740     1.1430 cd         1 USK       0.014000
      9 C05         23.8170     5.0850     1.0450 cd         1 USK      -0.148000
     10 C06         25.1540     5.0820     0.7250 cc         1 USK      -0.114000
     11 C07         25.9100     6.3230     0.5350 ca         1 USK      -0.027000
     12 C08         25.5880     7.4940     1.2550 ca         1 USK      -0.091000
     13 C09         26.3260     8.6760     1.0660 ca         1 USK      -0.109000
     14 C11         27.7300     7.5390    -0.5590 ca         1 USK      -0.109000
     15 C12         26.9920     6.3570    -0.3700 ca         1 USK      -0.091000
     16 C16         22.6660     2.1210    -1.9250 cd         1 USK      -0.203300
     17 C23         20.0140     0.6800    -3.5350 c          1 USK       0.605100
     18 C27         19.3900     2.6730    -0.2060 c3         1 USK      -0.031100
     19 C29         18.6110     0.8030     1.3310 ca         1 USK      -0.064500
     20 C30         17.5950     0.0360     1.9270 ca         1 USK      -0.176000
     21 C31         16.2480     0.3090     1.6380 ca         1 USK       0.144100
     22 C32         15.9170     1.3470     0.7570 ca         1 USK      -0.176000
     23 C33         16.9300     2.1170     0.1590 ca         1 USK      -0.064500
     24 N14         24.2450     0.6620    -0.7170 n7         1 USK      -0.895300
     25 N18         22.5410     4.2810    -2.5080 nc         1 USK      -0.357000
     26 N19         21.3370     3.9360    -2.1300 nd         1 USK      -0.216800
     27 N20         21.3840     2.6150    -1.7510 na         1 USK       0.129800
     28 N24         20.2740     1.3200    -4.7400 ns         1 USK      -0.376400
     29 O01         22.5120     0.7510     1.1150 o          1 USK      -0.551500
     30 O25         20.7400     0.5780    -5.8940 oh         1 USK      -0.424100
     31 O26         20.3550    -0.4740    -3.3130 o          1 USK      -0.588100
     32 O34         15.2580    -0.4310     2.2110 oh         1 USK      -0.532100
     33 O35         25.0000     0.4050     1.6160 o          1 USK      -0.551500
     34 S13         25.7800     3.4470     0.5200 ss         1 USK       0.335000
     35 H1          27.9690     9.6140     0.0120 ha         1 USK       0.115000
     36 H2          22.3090     0.0670    -1.3710 h1         1 USK       0.075700
     37 H3          23.4830     0.3120    -2.6520 h1         1 USK       0.075700
     38 H4          24.4050     3.2600    -2.6590 h4         1 USK       0.054100
     39 H5          20.4960     0.9620    -0.8330 h1         1 USK       0.091700
     40 H6          18.8630     2.4250    -2.9630 hc         1 USK       0.085700
     41 H7          18.4210     0.9030    -2.1310 hc         1 USK       0.085700
     42 H8          22.2340     3.5770     1.3820 ha         1 USK       0.148000
     43 H9          23.2220     5.9800     1.1890 ha         1 USK       0.143000
     44 H10         24.7730     7.4930     1.9740 ha         1 USK       0.116500
     45 H11         26.0700     9.5720     1.6270 ha         1 USK       0.116000
     46 H12         28.5590     7.5550    -1.2630 ha         1 USK       0.116000
     47 H13         27.2600     5.4710    -0.9390 ha         1 USK       0.116500
     48 H14         20.0980     2.9880     0.5680 hc         1 USK       0.071700
     49 H15         18.9810     3.5970    -0.6330 hc         1 USK       0.071700
     50 H16         19.6530     0.5870     1.5610 ha         1 USK       0.121500
     51 H17         17.8620    -0.7670     2.6100 ha         1 USK       0.123500
     52 H18         14.8740     1.5580     0.5340 ha         1 USK       0.123500
     53 H19         16.6620     2.9200    -0.5250 ha         1 USK       0.121500
     54 H20         24.5180    -0.3110    -0.5960 hn         1 USK       0.496000
     55 H21         19.8430     2.2250    -4.9300 hn         1 USK       0.341500
     56 H22         21.5140     1.1020    -6.2110 ho         1 USK       0.449000
     57 H23         15.6710    -1.1040     2.7930 ho         1 USK       0.467000
     58 S02         23.9230     1.0490     0.8650 sy         1 USK       1.199600
@<TRIPOS>BOND
     1     1    13 ar  
     2     1    14 ar  
     3     1    35 1   
     4     2    16 1   
     5     2    24 1   
     6     2    36 1   
     7     2    37 1   
     8     3    16 2   
     9     3    25 1   
    10     3    38 1   
    11     4     5 1   
    12     4    18 1   
    13     4    27 1   
    14     4    39 1   
    15     5    17 1   
    16     5    40 1   
    17     5    41 1   
    18     6    18 1   
    19     6    19 ar  
    20     6    23 ar  
    21     7     8 2   
    22     7    34 1   
    23     7    58 1   
    24     8     9 1   
    25     8    42 1   
    26     9    10 2   
    27     9    43 1   
    28    10    11 1   
    29    10    34 1   
    30    11    12 ar  
    31    11    15 ar  
    32    12    13 ar  
    33    12    44 1   
    34    13    45 1   
    35    14    15 ar  
    36    14    46 1   
    37    15    47 1   
    38    16    27 1   
    39    17    28 1   
    40    17    31 2   
    41    18    48 1   
    42    18    49 1   
    43    19    20 ar  
    44    19    50 1   
    45    20    21 ar  
    46    20    51 1   
    47    21    22 ar  
    48    21    32 1   
    49    22    23 ar  
    50    22    52 1   
    51    23    53 1   
    52    24    54 1   
    53    24    58 1   
    54    25    26 2   
    55    26    27 1   
    56    28    30 1   
    57    28    55 1   
    58    29    58 2   
    59    30    56 1   
    60    32    57 1   
    61    33    58 2   
@<TRIPOS>SUBSTRUCTURE
     1 USK         1 TEMP              0 ****  ****    0 ROOT
