@<TRIPOS>MOLECULE
USP
   22    23     1     0     0
SMALL
No Charge or Current Charge


@<TRIPOS>ATOM
      1 C4          28.4950    15.2600    37.7250 ca         1 USP       0.271000
      2 C5          29.5410    15.8330    38.4740 ca         1 USP      -0.158000
      3 C6          29.2080    16.6850    39.5350 ca         1 USP       0.115100
      4 N1          28.7810    14.4240    36.6810 nv         1 USP      -1.052000
      5 C7          29.2920    18.1300    41.2660 c5         1 USP       0.645500
      6 C3          27.1470    15.5450    38.0430 ca         1 USP      -0.176000
      7 C2          26.8300    16.4050    39.1180 ca         1 USP      -0.076000
      8 C1          27.8930    16.9570    39.8450 ca         1 USP       0.176000
      9 O           30.1170    17.3270    40.3550 os         1 USP      -0.358100
     10 N           27.9020    17.8120    40.9230 nh         1 USP      -0.804400
     11 C           26.7300    18.5800    41.3850 c3         1 USP       0.210100
     12 O1          29.5360    19.4880    41.0120 oh         1 USP      -0.687000
     13 H1          30.5810    15.6270    38.2390 ha         1 USP       0.130000
     14 H2          29.7400    14.1260    36.5090 hn         1 USP       0.435000
     15 H3          28.0330    13.9240    36.2040 hn         1 USP       0.435000
     16 H4          29.5410    17.9590    42.3250 h3         1 USP       0.080700
     17 H5          26.3450    15.1010    37.4600 ha         1 USP       0.113000
     18 H6          25.7980    16.6310    39.3730 ha         1 USP       0.118000
     19 H7          26.9680    19.1310    42.3050 h1         1 USP       0.039367
     20 H8          26.4180    19.3030    40.6200 h1         1 USP       0.039367
     21 H9          25.8900    17.9060    41.6010 h1         1 USP       0.039367
     22 H10         30.5120    19.5400    40.9770 ho         1 USP       0.465000
@<TRIPOS>BOND
     1     1     2 ar  
     2     1     4 1   
     3     1     6 ar  
     4     2     3 ar  
     5     2    13 1   
     6     3     8 ar  
     7     3     9 1   
     8     4    14 1   
     9     4    15 1   
    10     5     9 1   
    11     5    10 1   
    12     5    12 1   
    13     5    16 1   
    14     6     7 ar  
    15     6    17 1   
    16     7     8 ar  
    17     7    18 1   
    18     8    10 1   
    19    10    11 1   
    20    11    19 1   
    21    11    20 1   
    22    11    21 1   
    23    12    22 1   
@<TRIPOS>SUBSTRUCTURE
     1 USP         1 TEMP              0 ****  ****    0 ROOT
