@<TRIPOS>MOLECULE
USP
   22    23     1     0     0
SMALL
abcg2


@<TRIPOS>ATOM
      1 C4          28.4910    15.2900    37.6960 ca         1 USP       0.271000
      2 C5          29.5370    15.8080    38.4870 ca         1 USP      -0.158000
      3 C6          29.1960    16.6020    39.5510 ca         1 USP       0.115100
      4 N1          28.7940    14.5230    36.5740 nv         1 USP      -1.052000
      5 C7          29.2780    18.1260    41.1970 c5         1 USP       0.645500
      6 C3          27.1730    15.6120    38.0100 ca         1 USP      -0.176000
      7 C2          26.8530    16.4330    39.1000 ca         1 USP      -0.076000
      8 C1          27.8820    16.9180    39.8760 ca         1 USP       0.176000
      9 O           30.0380    17.1860    40.4440 os         1 USP      -0.358100
     10 N           27.9220    17.6870    41.0320 nh         1 USP      -0.804400
     11 C           26.8300    18.5390    41.4240 c3         1 USP       0.210100
     12 O1          29.4380    19.4030    40.6910 oh         1 USP      -0.687000
     13 H1          30.5720    15.5850    38.2580 ha         1 USP       0.130000
     14 H2          29.6600    14.0120    36.6430 hn         1 USP       0.435000
     15 H3          28.0510    13.9020    36.2910 hn         1 USP       0.435000
     16 H4          29.6140    18.0720    42.2370 h3         1 USP       0.080700
     17 H5          26.3700    15.2250    37.3930 ha         1 USP       0.113000
     18 H6          25.8190    16.6680    39.3160 ha         1 USP       0.118000
     19 H7          27.0390    18.9780    42.3980 h1         1 USP       0.039367
     20 H8          26.6320    19.3480    40.7150 h1         1 USP       0.039367
     21 H9          25.9230    17.9430    41.5230 h1         1 USP       0.039367
     22 H10         30.1870    19.8320    41.1190 ho         1 USP       0.465000
@<TRIPOS>BOND
     1     1     2 ar  
     2     1     4 1   
     3     1     6 ar  
     4     2     3 ar  
     5     2    13 1   
     6     3     8 ar  
     7     3     9 1   
     8     4    14 1   
     9     4    15 1   
    10     5     9 1   
    11     5    10 1   
    12     5    12 1   
    13     5    16 1   
    14     6     7 ar  
    15     6    17 1   
    16     7     8 ar  
    17     7    18 1   
    18     8    10 1   
    19    10    11 1   
    20    11    19 1   
    21    11    20 1   
    22    11    21 1   
    23    12    22 1   
@<TRIPOS>SUBSTRUCTURE
     1 USP         1 TEMP              0 ****  ****    0 ROOT
