@<TRIPOS>MOLECULE
USQ
   60    62     1     0     0
SMALL
No Charge or Current Charge


@<TRIPOS>ATOM
      1 N1          72.4690   102.7450    25.2900 n          1 USQ      -0.294000
      2 C2          73.6240   103.5180    25.0590 c          1 USQ       0.623000
      3 N3          74.1760   104.1140    26.1510 ns         1 USQ      -0.476500
      4 C4          73.7500   104.0650    27.4360 c          1 USQ       0.594200
      5 C5          72.5460   103.2660    27.6220 cc         1 USQ      -0.409200
      6 C6          71.9260   102.6290    26.5700 cd         1 USQ       0.056600
      7 O2          74.1260   103.6720    23.9570 o          1 USQ      -0.611000
      8 O4          74.3310   104.6440    28.3360 o          1 USQ      -0.596000
      9 C1D         71.8370   102.0540    24.1380 c5         1 USQ       0.288700
     10 C2D         72.2320   100.5430    24.1980 c5         1 USQ       0.105300
     11 O2D         73.5350   100.2480    23.6660 oh         1 USQ      -0.674000
     12 C3D         71.1310    99.9820    23.2560 c5         1 USQ       0.101300
     13 C4D         69.8800   100.8110    23.7300 c5         1 USQ       0.123300
     14 O4D         70.3990   102.0730    24.2420 os         1 USQ      -0.473000
     15 O3D         71.4830   100.2440    21.8730 oh         1 USQ      -0.719000
     16 C5D         69.0030   100.1150    24.8170 c3         1 USQ       0.245600
     17 O5D         69.7700    99.9190    26.0140 os         1 USQ      -0.629400
     18 PA          69.0460    99.3030    27.3130 p5         1 USQ       1.476800
     19 O1A         69.7960    99.6090    28.5660 o          1 USQ      -0.848500
     20 O2A         67.6510    99.8230    27.4180 o          1 USQ      -0.848500
     21 O3A         69.0210    97.7630    26.9790 os         1 USQ      -0.725800
     22 PB          70.3640    97.0980    26.4960 p5         1 USQ       1.468800
     23 O1B         71.5970    97.6170    27.1560 o          1 USQ      -0.841500
     24 O2B         70.4810    97.0840    25.0090 o          1 USQ      -0.841500
     25 O3B         70.0670    95.6220    27.0490 os         1 USQ      -0.601400
     26 C1          69.1150    94.8520    26.3110 c6         1 USQ       0.466300
     27 C7          68.0040    94.2130    27.2270 c6         1 USQ       0.145300
     28 C3          68.6640    93.1800    28.1780 c6         1 USQ       0.130300
     29 C8          69.4480    92.1070    27.3660 c6         1 USQ       0.127300
     30 C9          70.4930    92.8260    26.4290 c6         1 USQ       0.192300
     31 C10         71.1900    91.9000    25.3980 c3         1 USQ      -0.343400
     32 O6          67.2500    95.1630    28.0120 oh         1 USQ      -0.685000
     33 O3          67.6780    92.5360    29.0100 oh         1 USQ      -0.708000
     34 O7          70.0360    91.1670    28.2920 oh         1 USQ      -0.792000
     35 O5          69.8170    93.8040    25.6010 os         1 USQ      -0.479000
     36 S           72.5690    90.9230    25.9900 s6         1 USQ       1.324600
     37 O1S         73.4970    91.9200    26.5380 o          1 USQ      -0.704867
     38 O2S         71.9460    90.0510    26.9940 o          1 USQ      -0.704867
     39 O3S         73.0490    90.2300    24.7890 o          1 USQ      -0.704867
     40 HN3         75.0040   104.6630    25.9800 hn         1 USQ       0.307500
     41 H5          72.1710   103.2090    28.6380 ha         1 USQ       0.245000
     42 H6          71.0210   102.0240    26.6440 h4         1 USQ       0.292000
     43 H1D         72.1560   102.5270    23.2010 h2         1 USQ       0.058700
     44 H2D         72.1160   100.1480    25.2190 h1         1 USQ       0.165700
     45 HO2         73.3770   100.2060    22.6910 ho         1 USQ       0.490000
     46 H3D         70.9770    98.9050    23.4350 h1         1 USQ       0.192700
     47 H4D         69.2240   101.0320    22.8780 h1         1 USQ       0.032700
     48 HO3         70.7300    99.9450    21.3110 ho         1 USQ       0.469000
     49 H5'1        68.6380    99.1560    24.4250 h1         1 USQ       0.028200
     50 H5'2        68.1310   100.7530    25.0120 h1         1 USQ       0.028200
     51 H1          68.5970    95.4890    25.5770 h2         1 USQ       0.076700
     52 H2          67.3080    93.6720    26.5690 h1         1 USQ       0.008700
     53 H3          69.3910    93.7150    28.8100 h1         1 USQ       0.080700
     54 H4          68.7340    91.5750    26.7190 h1         1 USQ       0.012700
     55 H7          71.2550    93.3410    27.0370 h1         1 USQ       0.101700
     56 H6'1        71.6110    92.5100    24.5930 h1         1 USQ       0.082700
     57 H6'2        70.4690    91.1960    24.9720 h1         1 USQ       0.082700
     58 HO2A        66.9130    94.6300    28.7690 ho         1 USQ       0.474000
     59 HO3A        68.1100    91.6860    29.2630 ho         1 USQ       0.444000
     60 HO4         70.7510    90.6590    27.7920 ho         1 USQ       0.568000
@<TRIPOS>BOND
     1     1     2 1   
     2     1     6 1   
     3     1     9 1   
     4     2     3 1   
     5     2     7 2   
     6     3     4 1   
     7     3    40 1   
     8     4     5 1   
     9     4     8 2   
    10     5     6 2   
    11     5    41 1   
    12     6    42 1   
    13     9    10 1   
    14     9    14 1   
    15     9    43 1   
    16    10    11 1   
    17    10    12 1   
    18    10    44 1   
    19    11    45 1   
    20    12    13 1   
    21    12    15 1   
    22    12    46 1   
    23    13    14 1   
    24    13    16 1   
    25    13    47 1   
    26    15    48 1   
    27    16    17 1   
    28    16    49 1   
    29    16    50 1   
    30    17    18 1   
    31    18    19 1   
    32    18    20 1   
    33    18    21 1   
    34    21    22 1   
    35    22    23 1   
    36    22    24 1   
    37    22    25 1   
    38    25    26 1   
    39    26    27 1   
    40    26    35 1   
    41    26    51 1   
    42    27    28 1   
    43    27    32 1   
    44    27    52 1   
    45    28    29 1   
    46    28    33 1   
    47    28    53 1   
    48    29    30 1   
    49    29    34 1   
    50    29    54 1   
    51    30    31 1   
    52    30    35 1   
    53    30    55 1   
    54    31    36 1   
    55    31    56 1   
    56    31    57 1   
    57    32    58 1   
    58    33    59 1   
    59    34    60 1   
    60    36    37 1   
    61    36    38 1   
    62    36    39 1   
@<TRIPOS>SUBSTRUCTURE
     1 USQ         1 TEMP              0 ****  ****    0 ROOT
