@<TRIPOS>MOLECULE
USQ
   60    62     1     0     0
SMALL
abcg2


@<TRIPOS>ATOM
      1 N1          72.5080   102.2320    25.3830 n          1 USQ      -0.294000
      2 C2          73.6080   103.0590    25.5010 c          1 USQ       0.623000
      3 N3          73.6480   103.7880    26.6620 ns         1 USQ      -0.476500
      4 C4          72.7370   103.7880    27.7090 c          1 USQ       0.594200
      5 C5          71.6130   102.9140    27.4850 cc         1 USQ      -0.409200
      6 C6          71.5510   102.1860    26.3590 cd         1 USQ       0.056600
      7 O2          74.4790   103.1420    24.6620 o          1 USQ      -0.611000
      8 O4          72.9270   104.4780    28.6920 o          1 USQ      -0.596000
      9 C1D         72.3950   101.3560    24.2240 c5         1 USQ       0.288700
     10 C2D         72.5120    99.8650    24.5700 c5         1 USQ       0.105300
     11 O2D         73.8260    99.4210    24.6970 oh         1 USQ      -0.674000
     12 C3D         71.7060    99.2240    23.4380 c5         1 USQ       0.101300
     13 C4D         70.6150   100.2690    23.1770 c5         1 USQ       0.123300
     14 O4D         71.1390   101.5250    23.6300 os         1 USQ      -0.473000
     15 O3D         72.5180    98.9600    22.3120 oh         1 USQ      -0.719000
     16 C5D         69.2850    99.9890    23.8480 c3         1 USQ       0.245600
     17 O5D         69.4620   100.0070    25.2420 os         1 USQ      -0.629400
     18 PA          68.2980    99.5250    26.3050 p5         1 USQ       1.476800
     19 O1A         68.5670   100.2930    27.5560 o          1 USQ      -0.848500
     20 O2A         66.9580    99.5250    25.6430 o          1 USQ      -0.848500
     21 O3A         68.7030    97.9420    26.4970 os         1 USQ      -0.725800
     22 PB          70.1750    97.2630    26.7790 p5         1 USQ       1.468800
     23 O1B         71.0250    98.1270    27.6530 o          1 USQ      -0.841500
     24 O2B         70.7010    96.7250    25.4840 o          1 USQ      -0.841500
     25 O3B         69.6720    96.0230    27.7510 os         1 USQ      -0.601400
     26 C1          68.6450    95.1400    27.4120 c6         1 USQ       0.466300
     27 C7          68.4190    94.1810    28.5760 c6         1 USQ       0.145300
     28 C3          69.6130    93.2520    28.7210 c6         1 USQ       0.130300
     29 C8          69.9190    92.5400    27.4060 c6         1 USQ       0.127300
     30 C9          70.0530    93.5710    26.2750 c6         1 USQ       0.192300
     31 C10         70.0940    92.9970    24.8640 c3         1 USQ      -0.343400
     32 O6          68.1670    94.9280    29.7380 oh         1 USQ      -0.685000
     33 O3          69.3030    92.3310    29.7430 oh         1 USQ      -0.708000
     34 O7          71.0900    91.8010    27.6270 oh         1 USQ      -0.792000
     35 O5          68.8990    94.4050    26.2560 os         1 USQ      -0.479000
     36 S           71.5610    92.0590    24.4000 s6         1 USQ       1.324600
     37 O1S         72.7190    92.9020    24.7380 o          1 USQ      -0.704867
     38 O2S         71.5090    90.8000    25.2010 o          1 USQ      -0.704867
     39 O3S         71.4010    91.7990    22.9620 o          1 USQ      -0.704867
     40 HN3         74.4570   104.3880    26.7620 hn         1 USQ       0.307500
     41 H5          70.8320   102.8400    28.2260 ha         1 USQ       0.245000
     42 H6          70.7190   101.5230    26.1710 h4         1 USQ       0.292000
     43 H1D         73.1960   101.6470    23.5400 h2         1 USQ       0.058700
     44 H2D         72.0100    99.6580    25.5190 h1         1 USQ       0.165700
     45 HO2         74.1700    99.2540    23.8110 ho         1 USQ       0.490000
     46 H3D         71.2870    98.2670    23.7500 h1         1 USQ       0.192700
     47 H4D         70.4190   100.3350    22.1010 h1         1 USQ       0.032700
     48 HO3         72.6910    99.7700    21.8190 ho         1 USQ       0.469000
     49 H5'1        68.9190    99.0220    23.4850 h1         1 USQ       0.028200
     50 H5'2        68.5580   100.7460    23.5370 h1         1 USQ       0.028200
     51 H1          67.7210    95.6900    27.2010 h2         1 USQ       0.076700
     52 H2          67.5440    93.5700    28.3050 h1         1 USQ       0.008700
     53 H3          70.4960    93.8480    28.9970 h1         1 USQ       0.080700
     54 H4          69.0660    91.8830    27.1650 h1         1 USQ       0.012700
     55 H7          70.9540    94.1720    26.4390 h1         1 USQ       0.101700
     56 H6'1        70.0420    93.8260    24.1550 h1         1 USQ       0.082700
     57 H6'2        69.2330    92.3470    24.6840 h1         1 USQ       0.082700
     58 HO2A        67.9900    94.3090    30.4530 ho         1 USQ       0.474000
     59 HO3A        70.0760    91.7750    29.8870 ho         1 USQ       0.444000
     60 HO4         71.2790    91.2710    26.8240 ho         1 USQ       0.568000
@<TRIPOS>BOND
     1     1     2 1   
     2     1     6 1   
     3     1     9 1   
     4     2     3 1   
     5     2     7 2   
     6     3     4 1   
     7     3    40 1   
     8     4     5 1   
     9     4     8 2   
    10     5     6 2   
    11     5    41 1   
    12     6    42 1   
    13     9    10 1   
    14     9    14 1   
    15     9    43 1   
    16    10    11 1   
    17    10    12 1   
    18    10    44 1   
    19    11    45 1   
    20    12    13 1   
    21    12    15 1   
    22    12    46 1   
    23    13    14 1   
    24    13    16 1   
    25    13    47 1   
    26    15    48 1   
    27    16    17 1   
    28    16    49 1   
    29    16    50 1   
    30    17    18 1   
    31    18    19 1   
    32    18    20 1   
    33    18    21 1   
    34    21    22 1   
    35    22    23 1   
    36    22    24 1   
    37    22    25 1   
    38    25    26 1   
    39    26    27 1   
    40    26    35 1   
    41    26    51 1   
    42    27    28 1   
    43    27    32 1   
    44    27    52 1   
    45    28    29 1   
    46    28    33 1   
    47    28    53 1   
    48    29    30 1   
    49    29    34 1   
    50    29    54 1   
    51    30    31 1   
    52    30    35 1   
    53    30    55 1   
    54    31    36 1   
    55    31    56 1   
    56    31    57 1   
    57    32    58 1   
    58    33    59 1   
    59    34    60 1   
    60    36    37 1   
    61    36    38 1   
    62    36    39 1   
@<TRIPOS>SUBSTRUCTURE
     1 USQ         1 TEMP              0 ****  ****    0 ROOT
