@<TRIPOS>MOLECULE
USR
   64    65     1     0     0
SMALL
No Charge or Current Charge


@<TRIPOS>ATOM
      1 C01          5.4070    -7.7850   -11.0740 c3         1 USR       0.182300
      2 C02          4.9060    -6.2940   -11.1170 c3         1 USR       0.185300
      3 C03          3.5300    -6.1250   -11.8230 c3         1 USR       0.121600
      4 C07          6.8520    -8.0590   -10.4990 c6         1 USR       0.140300
      5 C08          7.1020    -7.5640    -9.0440 c6         1 USR       0.095700
      6 C09          8.4790    -8.1330    -8.5610 c6         1 USR       0.157300
      7 C10          9.3890    -8.5940    -9.7390 c6         1 USR      -0.118400
      8 C11          9.2650    -7.7180   -11.0330 c6         1 USR       0.246000
      9 C13         10.0900    -6.3540   -10.7710 c          1 USR       0.722000
     10 C16          8.5240    -8.0350   -14.2450 c6         1 USR       0.161300
     11 C17          9.8920    -7.9870   -13.4680 c6         1 USR       0.166300
     12 C18         11.0210    -8.6870   -14.2850 c6         1 USR       0.141300
     13 C19         11.1970    -7.9110   -15.6520 c6         1 USR       0.364300
     14 C21          8.7580    -8.1700   -15.7940 c6         1 USR       0.178300
     15 C25          7.5320    -7.7100   -16.6570 c3         1 USR       0.165600
     16 C29          7.0310    -3.7710    -8.1460 c3         1 USR       0.075600
     17 N15          7.1450    -6.0890    -9.0010 ns         1 USR      -0.468900
     18 O04          3.6560    -6.3340   -13.2430 oh         1 USR      -0.684000
     19 O05          5.8300    -5.4370   -11.8030 oh         1 USR      -0.608000
     20 O06          4.4380    -8.5810   -10.3480 oh         1 USR      -0.737000
     21 O12          7.8560    -7.4520   -11.3560 os         1 USR      -0.424000
     22 O14          8.2740    -9.2460    -7.6790 oh         1 USR      -0.667000
     23 O20          9.9380    -7.4370   -16.2060 os         1 USR      -0.479000
     24 O22         12.0080    -6.7480   -15.4090 os         1 USR      -0.446000
     25 O23          7.7280    -6.8860   -13.8900 oh         1 USR      -0.773000
     26 O24          9.7960    -8.5480   -12.1170 os         1 USR      -0.490000
     27 O26          7.7100    -7.9330   -18.0740 oh         1 USR      -0.735000
     28 O27         10.7200   -10.1000   -14.4680 oh         1 USR      -0.703000
     29 O30          6.4890    -5.7620    -6.8430 o          1 USR      -0.628100
     30 O31          6.6780    -2.9930    -6.9750 oh         1 USR      -0.666000
     31 O33         11.2130    -6.2780   -11.2600 o          1 USR      -0.688000
     32 O34          9.4230    -5.3270   -10.6940 o          1 USR      -0.688000
     33 H011         5.4340    -8.1290   -12.1180 h1         1 USR       0.069700
     34 H021         4.7840    -5.9480   -10.0830 h1         1 USR       0.030700
     35 H031         2.8010    -6.8250   -11.3950 h1         1 USR       0.013700
     36 H032         3.1570    -5.1100   -11.6290 h1         1 USR       0.013700
     37 H071         6.9830    -9.1500   -10.5360 h1         1 USR       0.039700
     38 H081         6.2960    -7.9200    -8.3850 h1         1 USR       0.086700
     39 H091         9.0040    -7.3330    -8.0160 h1         1 USR       0.057700
     40 H102        10.4350    -8.6110    -9.4070 hc         1 USR       0.064700
     41 H101         9.1530    -9.6360    -9.9980 hc         1 USR       0.064700
     42 H161         7.9920    -8.9450   -13.9290 h1         1 USR       0.030700
     43 H171        10.1890    -6.9310   -13.3980 h1         1 USR       0.091700
     44 H181        11.9580    -8.5820   -13.7170 h1         1 USR       0.062700
     45 H191        11.7030    -8.5640   -16.3780 h2         1 USR       0.008700
     46 H211         8.9160    -9.2320   -16.0320 h1         1 USR       0.043700
     47 H252         6.6460    -8.2520   -16.2990 h1         1 USR       0.044700
     48 H251         7.3590    -6.6420   -16.4660 h1         1 USR       0.044700
     49 H292         8.0770    -3.5920    -8.4290 h1         1 USR       0.045200
     50 H291         6.4040    -3.4890    -9.0020 h1         1 USR       0.045200
     51 H323        13.0820    -5.1790   -16.2730 h1         1 USR       0.026367
     52 H322        13.0160    -6.6670   -17.2440 h1         1 USR       0.026367
     53 H321        11.5850    -5.6130   -17.1230 h1         1 USR       0.026367
     54 H151         7.4770    -5.6130    -9.8370 hn         1 USR       0.332500
     55 H041         2.7510    -6.2720   -13.6270 ho         1 USR       0.487000
     56 H051         5.5120    -5.4430   -12.7340 ho         1 USR       0.430000
     57 H061         4.5120    -9.5080   -10.6740 ho         1 USR       0.506000
     58 H141         9.1490    -9.4740    -7.2950 ho         1 USR       0.441000
     59 H231         7.6910    -6.9150   -12.8900 ho         1 USR       0.591000
     60 H261         6.9330    -7.5300   -18.5270 ho         1 USR       0.487000
     61 H271        11.5800   -10.5690   -14.5640 ho         1 USR       0.486000
     62 H311         6.4320    -3.6520    -6.2800 ho         1 USR       0.474000
     63 C28          6.8590    -5.2980    -7.9160 c          1 USR       0.565100
     64 C32         12.4410    -6.0190   -16.5700 c3         1 USR       0.160900
@<TRIPOS>BOND
     1     1     2 1   
     2     1     4 1   
     3     1    20 1   
     4     1    33 1   
     5     2     3 1   
     6     2    19 1   
     7     2    34 1   
     8     3    18 1   
     9     3    35 1   
    10     3    36 1   
    11     4     5 1   
    12     4    21 1   
    13     4    37 1   
    14     5     6 1   
    15     5    17 1   
    16     5    38 1   
    17     6     7 1   
    18     6    22 1   
    19     6    39 1   
    20     7     8 1   
    21     7    40 1   
    22     7    41 1   
    23     8     9 1   
    24     8    21 1   
    25     8    26 1   
    26     9    31 1   
    27     9    32 1   
    28    10    11 1   
    29    10    14 1   
    30    10    25 1   
    31    10    42 1   
    32    11    12 1   
    33    11    26 1   
    34    11    43 1   
    35    12    13 1   
    36    12    28 1   
    37    12    44 1   
    38    13    23 1   
    39    13    24 1   
    40    13    45 1   
    41    14    15 1   
    42    14    23 1   
    43    14    46 1   
    44    15    27 1   
    45    15    47 1   
    46    15    48 1   
    47    16    30 1   
    48    16    49 1   
    49    16    50 1   
    50    16    63 1   
    51    17    54 1   
    52    17    63 1   
    53    18    55 1   
    54    19    56 1   
    55    20    57 1   
    56    22    58 1   
    57    24    64 1   
    58    25    59 1   
    59    27    60 1   
    60    28    61 1   
    61    29    63 2   
    62    30    62 1   
    63    51    64 1   
    64    52    64 1   
    65    53    64 1   
@<TRIPOS>SUBSTRUCTURE
     1 USR         1 TEMP              0 ****  ****    0 ROOT
