@<TRIPOS>MOLECULE
USR
   64    65     1     0     0
SMALL
abcg2


@<TRIPOS>ATOM
      1 C01          5.9850    -7.3120   -11.2380 c3         1 USR       0.182300
      2 C02          5.2370    -5.9750   -11.1140 c3         1 USR       0.185300
      3 C03          4.2350    -5.8170   -12.2490 c3         1 USR       0.121600
      4 C07          7.3810    -7.4640   -10.6220 c6         1 USR       0.140300
      5 C08          7.5420    -7.2920    -9.1010 c6         1 USR       0.095700
      6 C09          9.0240    -7.0140    -8.8100 c6         1 USR       0.157300
      7 C10          9.9000    -7.6890    -9.8600 c6         1 USR      -0.118400
      8 C11          9.6280    -7.0690   -11.2340 c6         1 USR       0.246000
      9 C13         10.5070    -5.8080   -11.5230 c          1 USR       0.722000
     10 C16          8.6160    -7.3840   -14.2060 c6         1 USR       0.161300
     11 C17          9.9530    -7.8210   -13.5580 c6         1 USR       0.166300
     12 C18         10.5120    -9.0780   -14.2080 c6         1 USR       0.141300
     13 C19         10.7280    -8.8170   -15.7130 c6         1 USR       0.364300
     14 C21          8.5180    -7.9580   -15.6220 c6         1 USR       0.178300
     15 C25          7.5280    -7.2070   -16.4870 c3         1 USR       0.165600
     16 C29          5.0770    -5.2150    -7.0790 c3         1 USR       0.075600
     17 N15          6.7120    -6.2630    -8.5200 ns         1 USR      -0.468900
     18 O04          4.9130    -5.7130   -13.4790 oh         1 USR      -0.684000
     19 O05          6.1500    -4.9020   -11.0670 oh         1 USR      -0.608000
     20 O06          5.1170    -8.2730   -10.6740 oh         1 USR      -0.737000
     21 O12          8.2940    -6.6330   -11.3030 os         1 USR      -0.424000
     22 O14          9.2910    -7.4600    -7.5010 oh         1 USR      -0.667000
     23 O20          9.7870    -7.9280   -16.2560 os         1 USR      -0.479000
     24 O22         11.9880    -8.2640   -15.8630 os         1 USR      -0.446000
     25 O23          8.4930    -5.9890   -14.2660 oh         1 USR      -0.773000
     26 O24          9.8830    -8.0920   -12.1700 os         1 USR      -0.490000
     27 O26          7.2950    -7.9590   -17.6580 oh         1 USR      -0.735000
     28 O27          9.6320   -10.1490   -13.9710 oh         1 USR      -0.703000
     29 O30          5.7600    -7.4830    -6.8550 o          1 USR      -0.628100
     30 O31          4.3310    -5.4710    -5.9290 oh         1 USR      -0.666000
     31 O33         11.5920    -5.7240   -10.9410 o          1 USR      -0.688000
     32 O34         10.0410    -4.9910   -12.3540 o          1 USR      -0.688000
     33 H011         6.1350    -7.5130   -12.3070 h1         1 USR       0.069700
     34 H021         4.6410    -6.0170   -10.1920 h1         1 USR       0.030700
     35 H031         3.5550    -6.6770   -12.2220 h1         1 USR       0.013700
     36 H032         3.6210    -4.9260   -12.0530 h1         1 USR       0.013700
     37 H071         7.6360    -8.5140   -10.8260 h1         1 USR       0.039700
     38 H081         7.2700    -8.2360    -8.6290 h1         1 USR       0.086700
     39 H091         9.1810    -5.9280    -8.8780 h1         1 USR       0.057700
     40 H102        10.9540    -7.5710    -9.6080 hc         1 USR       0.064700
     41 H101         9.6900    -8.7630    -9.8770 hc         1 USR       0.064700
     42 H161         7.7920    -7.8350   -13.6350 h1         1 USR       0.030700
     43 H171        10.6870    -7.0330   -13.7670 h1         1 USR       0.091700
     44 H181        11.4990    -9.2870   -13.7730 h1         1 USR       0.062700
     45 H191        10.6710    -9.7790   -16.2580 h2         1 USR       0.008700
     46 H211         8.1630    -8.9920   -15.5430 h1         1 USR       0.043700
     47 H252         6.6050    -7.0700   -15.9060 h1         1 USR       0.044700
     48 H251         7.9130    -6.2080   -16.7170 h1         1 USR       0.044700
     49 H292         5.7520    -4.3660    -6.9230 h1         1 USR       0.045200
     50 H291         4.4310    -4.9500    -7.9280 h1         1 USR       0.045200
     51 H323        13.4870    -7.8970   -17.1720 h1         1 USR       0.026367
     52 H322        12.3020    -9.0780   -17.7520 h1         1 USR       0.026367
     53 H321        11.9050    -7.3480   -17.7410 h1         1 USR       0.026367
     54 H151         6.7300    -5.3590    -8.9750 hn         1 USR       0.332500
     55 H041         4.2660    -5.7810   -14.1870 ho         1 USR       0.487000
     56 H051         5.6440    -4.0850   -10.9960 ho         1 USR       0.430000
     57 H061         5.3580    -9.1410   -11.0120 ho         1 USR       0.506000
     58 H141        10.1700    -7.1550    -7.2540 ho         1 USR       0.441000
     59 H231         8.9640    -5.5860   -13.4980 ho         1 USR       0.591000
     60 H261         6.7310    -7.4390   -18.2370 ho         1 USR       0.487000
     61 H271        10.0230   -10.9530   -14.3290 ho         1 USR       0.486000
     62 H311         4.4380    -6.4150    -5.7430 ho         1 USR       0.474000
     63 C28          5.8970    -6.4370    -7.4770 c          1 USR       0.565100
     64 C32         12.4260    -8.1400   -17.1980 c3         1 USR       0.160900
@<TRIPOS>BOND
     1     1     2 1   
     2     1     4 1   
     3     1    20 1   
     4     1    33 1   
     5     2     3 1   
     6     2    19 1   
     7     2    34 1   
     8     3    18 1   
     9     3    35 1   
    10     3    36 1   
    11     4     5 1   
    12     4    21 1   
    13     4    37 1   
    14     5     6 1   
    15     5    17 1   
    16     5    38 1   
    17     6     7 1   
    18     6    22 1   
    19     6    39 1   
    20     7     8 1   
    21     7    40 1   
    22     7    41 1   
    23     8     9 1   
    24     8    21 1   
    25     8    26 1   
    26     9    31 1   
    27     9    32 1   
    28    10    11 1   
    29    10    14 1   
    30    10    25 1   
    31    10    42 1   
    32    11    12 1   
    33    11    26 1   
    34    11    43 1   
    35    12    13 1   
    36    12    28 1   
    37    12    44 1   
    38    13    23 1   
    39    13    24 1   
    40    13    45 1   
    41    14    15 1   
    42    14    23 1   
    43    14    46 1   
    44    15    27 1   
    45    15    47 1   
    46    15    48 1   
    47    16    30 1   
    48    16    49 1   
    49    16    50 1   
    50    16    63 1   
    51    17    54 1   
    52    17    63 1   
    53    18    55 1   
    54    19    56 1   
    55    20    57 1   
    56    22    58 1   
    57    24    64 1   
    58    25    59 1   
    59    27    60 1   
    60    28    61 1   
    61    29    63 2   
    62    30    62 1   
    63    51    64 1   
    64    52    64 1   
    65    53    64 1   
@<TRIPOS>SUBSTRUCTURE
     1 USR         1 TEMP              0 ****  ****    0 ROOT
