@<TRIPOS>MOLECULE
USS
   50    53     1     0     0
SMALL
bcc


@<TRIPOS>ATOM
      1 F01         23.1870   -15.7640    33.5410 f          1 USS      -0.137900
      2 C02         22.5380   -14.7430    34.1130 ca         1 USS       0.163900
      3 C03         22.9550   -14.2930    35.3510 ca         1 USS      -0.185500
      4 C04         22.2730   -13.2350    35.9340 ca         1 USS      -0.056500
      5 C05         21.1910   -12.6360    35.2890 ca         1 USS      -0.194600
      6 C06         20.4300   -11.4990    35.8810 c          1 USS       0.585700
      7 C07         20.8400   -10.9800    37.2370 c3         1 USS      -0.175400
      8 C08         19.9670    -9.8410    37.7400 c3         1 USS      -0.069400
      9 C09         20.4140    -9.3530    39.1120 c3         1 USS       0.173800
     10 N10         19.5900    -8.2620    39.6020 n3         1 USS      -0.726600
     11 C11         19.8800    -6.9910    38.9640 c6         1 USS       0.169800
     12 C12         18.7830    -5.9850    39.2740 c6         1 USS      -0.044200
     13 C13         18.4710    -5.9990    40.7370 c2         1 USS       0.033400
     14 N14         17.6900    -4.9270    41.2400 n          1 USS      -0.302200
     15 C15         16.3110    -4.8340    41.1620 ca         1 USS       0.009600
     16 C16         15.3560    -5.7340    40.7320 ca         1 USS      -0.120000
     17 C17         14.0250    -5.3270    40.7880 ca         1 USS      -0.130000
     18 C18         13.6740    -4.0670    41.2640 ca         1 USS      -0.127000
     19 C19         14.6410    -3.1640    41.7010 ca         1 USS      -0.132000
     20 C20         15.9610    -3.5670    41.6390 ca         1 USS       0.003600
     21 N21         17.1390    -2.9360    41.9740 ns         1 USS      -0.459100
     22 C22         18.2190    -3.7440    41.7210 c          1 USS       0.806500
     23 O23         19.3960    -3.4870    41.8800 o          1 USS      -0.632500
     24 C24         18.8920    -6.9630    41.5460 c2         1 USS      -0.149200
     25 C25         19.6650    -8.1390    41.0430 c6         1 USS       0.206000
     26 O26         19.5000   -11.0110    35.2750 o          1 USS      -0.520100
     27 C27         20.8030   -13.1210    34.0380 ca         1 USS      -0.056500
     28 C28         21.4700   -14.1750    33.4420 ca         1 USS      -0.185500
     29 H1          23.7940   -14.7560    35.8520 ha         1 USS       0.155000
     30 H2          22.6020   -12.8870    36.9040 ha         1 USS       0.146000
     31 H3          20.8300   -11.8150    37.9470 hc         1 USS       0.061200
     32 H4          21.8880   -10.6630    37.1850 hc         1 USS       0.061200
     33 H5          19.9940    -9.0230    37.0180 hc         1 USS       0.062200
     34 H6          18.9270   -10.1650    37.8080 hc         1 USS       0.062200
     35 H7          20.3280   -10.1830    39.8190 h1         1 USS       0.028200
     36 H8          21.4820    -9.0790    39.0900 h1         1 USS       0.028200
     37 H10         19.9470    -7.1280    37.8850 h1         1 USS       0.039700
     38 H11         20.8520    -6.5860    39.2930 h1         1 USS       0.039700
     39 H12         19.1050    -4.9840    38.9750 hc         1 USS       0.063700
     40 H13         17.8820    -6.2080    38.6930 hc         1 USS       0.063700
     41 H15         15.6300    -6.7150    40.3650 ha         1 USS       0.150000
     42 H16         13.2510    -6.0060    40.4550 ha         1 USS       0.135000
     43 H17         12.6320    -3.7800    41.2970 ha         1 USS       0.134000
     44 H18         14.3680    -2.1840    42.0710 ha         1 USS       0.139000
     45 H19         17.2260    -2.0030    42.3430 hn         1 USS       0.353500
     46 H20         18.6770    -6.9230    42.6070 ha         1 USS       0.142000
     47 H22         19.2600    -9.0460    41.5000 h1         1 USS       0.044200
     48 H24         19.9660   -12.6710    33.5210 ha         1 USS       0.146000
     49 H25         21.1680   -14.5510    32.4740 ha         1 USS       0.155000
     50 H9          20.7050    -8.0550    41.4080 h1         1 USS       0.044200
@<TRIPOS>BOND
     1     1     2 1   
     2     2     3 ar  
     3     2    28 ar  
     4     3     4 ar  
     5     3    29 1   
     6     4     5 ar  
     7     4    30 1   
     8     5     6 1   
     9     5    27 ar  
    10     6     7 1   
    11     6    26 2   
    12     7     8 1   
    13     7    31 1   
    14     7    32 1   
    15     8     9 1   
    16     8    33 1   
    17     8    34 1   
    18     9    10 1   
    19     9    35 1   
    20     9    36 1   
    21    10    11 1   
    22    10    25 1   
    23    11    12 1   
    24    11    37 1   
    25    11    38 1   
    26    12    13 1   
    27    12    39 1   
    28    12    40 1   
    29    13    14 1   
    30    13    24 2   
    31    14    15 1   
    32    14    22 1   
    33    15    16 ar  
    34    15    20 ar  
    35    16    17 ar  
    36    16    41 1   
    37    17    18 ar  
    38    17    42 1   
    39    18    19 ar  
    40    18    43 1   
    41    19    20 ar  
    42    19    44 1   
    43    20    21 1   
    44    21    22 1   
    45    21    45 1   
    46    22    23 2   
    47    24    25 1   
    48    24    46 1   
    49    25    47 1   
    50    25    50 1   
    51    27    28 ar  
    52    27    48 1   
    53    28    49 1   
@<TRIPOS>SUBSTRUCTURE
     1 USS         1 TEMP              0 ****  ****    0 ROOT
