@<TRIPOS>MOLECULE
USS
   50    53     1     0     0
SMALL
No Charge or Current Charge


@<TRIPOS>ATOM
      1 F01         23.2860   -16.3240    33.8840 f          1 USS      -0.173000
      2 C02         22.7310   -15.1590    34.2840 ca         1 USS       0.199000
      3 C03         22.6530   -14.8550    35.6490 ca         1 USS      -0.167500
      4 C04         22.0760   -13.6450    36.0710 ca         1 USS      -0.038500
      5 C05         21.5680   -12.7220    35.1220 ca         1 USS      -0.194600
      6 C06         20.9380   -11.4050    35.5410 c          1 USS       0.585700
      7 C07         20.8360   -11.0570    37.0400 c3         1 USS      -0.175400
      8 C08         20.1720    -9.6980    37.3780 c3         1 USS      -0.069400
      9 C09         20.1050    -9.4250    38.8990 c3         1 USS       0.173800
     10 N10         19.3270    -8.2220    39.2830 n3         1 USS      -0.726600
     11 C11         19.9160    -6.9380    38.8110 c6         1 USS       0.169800
     12 C12         18.9600    -5.7460    39.0650 c6         1 USS      -0.044200
     13 C13         18.2880    -5.7950    40.4390 c2         1 USS       0.033400
     14 N14         17.5090    -4.6800    40.8290 n          1 USS      -0.235200
     15 C15         16.2010    -4.7000    41.4220 ca         1 USS       0.009600
     16 C16         15.2990    -5.7530    41.6320 ca         1 USS      -0.102000
     17 C17         14.0560    -5.4420    42.2290 ca         1 USS      -0.112000
     18 C18         13.7360    -4.1080    42.5900 ca         1 USS      -0.109000
     19 C19         14.6530    -3.0600    42.3520 ca         1 USS      -0.114000
     20 C20         15.8720    -3.4010    41.7630 ca         1 USS       0.003600
     21 N21         16.9640    -2.6220    41.3880 ns         1 USS      -0.505600
     22 C22         17.9840    -3.3430    40.8340 c          1 USS       0.597000
     23 O23         19.0640    -2.9040    40.4760 o          1 USS      -0.557000
     24 C24         18.3420    -6.9200    41.1730 c2         1 USS      -0.199200
     25 C25         19.0980    -8.1650    40.7500 c6         1 USS       0.206000
     26 O26         20.5150   -10.6260    34.6950 o          1 USS      -0.520100
     27 C27         21.6560   -13.0470    33.7470 ca         1 USS      -0.038500
     28 C28         22.2340   -14.2600    33.3330 ca         1 USS      -0.167500
     29 H1          23.0410   -15.5590    36.3810 ha         1 USS       0.137000
     30 H2          22.0330   -13.4410    37.1390 ha         1 USS       0.128000
     31 H3          20.3270   -11.8890    37.5410 hc         1 USS       0.061200
     32 H4          21.8430   -11.1290    37.4680 hc         1 USS       0.061200
     33 H5          20.7340    -8.8990    36.8820 hc         1 USS       0.062200
     34 H6          19.1530    -9.6810    36.9700 hc         1 USS       0.062200
     35 H7          19.6490   -10.3070    39.3690 h1         1 USS       0.028200
     36 H8          21.1300    -9.3510    39.2890 h1         1 USS       0.028200
     37 H10         20.1380    -6.9670    37.7350 h1         1 USS       0.039700
     38 H11         20.8670    -6.7500    39.3310 h1         1 USS       0.039700
     39 H12         19.5300    -4.8200    38.9290 hc         1 USS       0.063700
     40 H13         18.1790    -5.7420    38.2950 hc         1 USS       0.063700
     41 H15         15.5390    -6.7720    41.3390 ha         1 USS       0.132000
     42 H16         13.3340    -6.2360    42.4100 ha         1 USS       0.117000
     43 H17         12.7730    -3.8890    43.0460 ha         1 USS       0.116000
     44 H18         14.4170    -2.0310    42.6140 ha         1 USS       0.121000
     45 H19         17.0370    -1.6230    41.5500 hn         1 USS       0.467000
     46 H20         17.8410    -6.9810    42.1370 ha         1 USS       0.192000
     47 H22         18.5340    -9.0510    41.0770 h1         1 USS       0.044200
     48 H24         21.2750   -12.3620    32.9910 ha         1 USS       0.128000
     49 H25         22.2970   -14.5010    32.2750 ha         1 USS       0.137000
     50 H9          20.0600    -8.1860    41.2840 h1         1 USS       0.044200
@<TRIPOS>BOND
     1     1     2 1   
     2     2     3 ar  
     3     2    28 ar  
     4     3     4 ar  
     5     3    29 1   
     6     4     5 ar  
     7     4    30 1   
     8     5     6 1   
     9     5    27 ar  
    10     6     7 1   
    11     6    26 2   
    12     7     8 1   
    13     7    31 1   
    14     7    32 1   
    15     8     9 1   
    16     8    33 1   
    17     8    34 1   
    18     9    10 1   
    19     9    35 1   
    20     9    36 1   
    21    10    11 1   
    22    10    25 1   
    23    11    12 1   
    24    11    37 1   
    25    11    38 1   
    26    12    13 1   
    27    12    39 1   
    28    12    40 1   
    29    13    14 1   
    30    13    24 2   
    31    14    15 1   
    32    14    22 1   
    33    15    16 ar  
    34    15    20 ar  
    35    16    17 ar  
    36    16    41 1   
    37    17    18 ar  
    38    17    42 1   
    39    18    19 ar  
    40    18    43 1   
    41    19    20 ar  
    42    19    44 1   
    43    20    21 1   
    44    21    22 1   
    45    21    45 1   
    46    22    23 2   
    47    24    25 1   
    48    24    46 1   
    49    25    47 1   
    50    25    50 1   
    51    27    28 ar  
    52    27    48 1   
    53    28    49 1   
@<TRIPOS>SUBSTRUCTURE
     1 USS         1 TEMP              0 ****  ****    0 ROOT
