@<TRIPOS>MOLECULE
UST
   33    35     1     0     0
SMALL
bcc


@<TRIPOS>ATOM
      1 C02         19.5810    21.7460     4.0130 c          1 UST       0.577500
      2 C03         18.9940    21.9790     2.6770 ca         1 UST      -0.151600
      3 C04         19.7640    21.7100     1.5500 ca         1 UST      -0.102000
      4 C05         19.2380    21.9020     0.2820 ca         1 UST      -0.047500
      5 C06         17.9370    22.3690     0.1630 ca         1 UST      -0.275500
      6 C10         17.1190    19.8120    -1.5890 c5         1 UST       0.184800
      7 C11         16.7170    19.1290    -0.2770 c5         1 UST      -0.056100
      8 C12         15.3820    19.7540     0.0060 ca         1 UST      -0.110300
      9 C13         15.2080    20.8780    -0.7940 ca         1 UST       0.077600
     10 C14         14.0430    21.6270    -0.7640 ca         1 UST      -0.097000
     11 C15         13.0510    21.2400     0.1300 ca         1 UST      -0.120000
     12 C16         13.2180    20.1290     0.9490 ca         1 UST      -0.128000
     13 C17         14.3850    19.3740     0.8850 ca         1 UST      -0.102000
     14 C19         17.1600    22.6620     1.2810 ca         1 UST      -0.047500
     15 C20         17.6940    22.4620     2.5400 ca         1 UST      -0.102000
     16 N09         16.3410    21.0760    -1.6320 nh         1 UST      -0.556900
     17 O08         16.2240    23.5700    -1.4230 o          1 UST      -0.596800
     18 O18         18.2450    22.4800    -2.4470 o          1 UST      -0.596800
     19 S07         17.1970    22.4950    -1.4460 sy         1 UST       1.278200
     20 H1          20.6170    21.3660     4.0020 h4         1 UST      -0.003800
     21 H4          20.7780    21.3480     1.6600 ha         1 UST       0.147500
     22 H5          19.8400    21.6920    -0.5910 ha         1 UST       0.159000
     23 H7          18.1880    19.9890    -1.6810 h1         1 UST       0.074200
     24 H8          16.6620    18.0470    -0.3960 hc         1 UST       0.066200
     25 H9          17.4270    19.3320     0.5290 hc         1 UST       0.066200
     26 H10         13.8990    22.4770    -1.4130 ha         1 UST       0.168000
     27 H11         12.1320    21.8090     0.1770 ha         1 UST       0.139000
     28 H12         12.4290    19.8420     1.6310 ha         1 UST       0.137000
     29 H13         14.5080    18.5000     1.5140 ha         1 UST       0.137000
     30 H14         16.1540    23.0470     1.1790 ha         1 UST       0.159000
     31 H15         17.0990    22.6830     3.4160 ha         1 UST       0.147500
     32 O1          18.9950    21.9440     5.0490 o          1 UST      -0.501100
     33 H6          16.8120    19.2160    -2.4480 h1         1 UST       0.074200
@<TRIPOS>BOND
     1     1     2 1   
     2     1    20 1   
     3     1    32 2   
     4     2     3 ar  
     5     2    15 ar  
     6     3     4 ar  
     7     3    21 1   
     8     4     5 ar  
     9     4    22 1   
    10     5    14 ar  
    11     5    19 1   
    12     6     7 1   
    13     6    16 1   
    14     6    23 1   
    15     6    33 1   
    16     7     8 1   
    17     7    24 1   
    18     7    25 1   
    19     8     9 ar  
    20     8    13 ar  
    21     9    10 ar  
    22     9    16 1   
    23    10    11 ar  
    24    10    26 1   
    25    11    12 ar  
    26    11    27 1   
    27    12    13 ar  
    28    12    28 1   
    29    13    29 1   
    30    14    15 ar  
    31    14    30 1   
    32    15    31 1   
    33    16    19 1   
    34    17    19 2   
    35    18    19 2   
@<TRIPOS>SUBSTRUCTURE
     1 UST         1 TEMP              0 ****  ****    0 ROOT
