@<TRIPOS>MOLECULE
UST
   33    35     1     0     0
SMALL
No Charge or Current Charge


@<TRIPOS>ATOM
      1 C02         19.2250    22.5820     4.2940 c          1 UST       0.577500
      2 C03         18.7510    22.5550     2.8650 ca         1 UST      -0.151600
      3 C04         19.2820    21.6060     1.9670 ca         1 UST      -0.084000
      4 C05         18.8480    21.5680     0.6300 ca         1 UST      -0.029500
      5 C06         17.8730    22.4770     0.1750 ca         1 UST      -0.275500
      6 C10         17.0940    19.6960    -2.0560 c5         1 UST       0.184800
      7 C11         16.3040    18.5450    -1.3060 c5         1 UST      -0.056100
      8 C12         15.3340    19.3190    -0.4290 ca         1 UST      -0.110300
      9 C13         15.4560    20.6850    -0.5850 ca         1 UST       0.216000
     10 C14         14.6370    21.5760     0.1310 ca         1 UST      -0.079000
     11 C15         13.6900    21.0480     1.0330 ca         1 UST      -0.102000
     12 C16         13.5720    19.6520     1.2000 ca         1 UST      -0.110000
     13 C17         14.3960    18.7770     0.4640 ca         1 UST      -0.084000
     14 C19         17.3430    23.4330     1.0670 ca         1 UST      -0.029500
     15 C20         17.7790    23.4690     2.4030 ca         1 UST      -0.084000
     16 N09         16.4540    20.9290    -1.5200 nh         1 UST      -0.695300
     17 O08         16.3450    23.4830    -1.7930 o          1 UST      -0.526000
     18 O18         18.4770    22.2070    -2.4090 o          1 UST      -0.526000
     19 S07         17.3100    22.4070    -1.5400 sy         1 UST       1.136600
     20 H1          19.9930    21.8240     4.5650 h4         1 UST      -0.003800
     21 H4          20.0340    20.8940     2.3020 ha         1 UST       0.129500
     22 H5          19.2710    20.8270    -0.0460 ha         1 UST       0.141000
     23 H7          18.1670    19.6460    -1.8270 h1         1 UST       0.074200
     24 H8          15.7850    17.8900    -2.0140 hc         1 UST       0.066200
     25 H9          16.9800    17.9170    -0.7150 hc         1 UST       0.066200
     26 H10         14.7120    22.6490    -0.0050 ha         1 UST       0.150000
     27 H11         13.0470    21.7190     1.5980 ha         1 UST       0.121000
     28 H12         12.8400    19.2490     1.8960 ha         1 UST       0.119000
     29 H13         14.3060    17.7000     0.5860 ha         1 UST       0.119000
     30 H14         16.5950    24.1500     0.7350 ha         1 UST       0.141000
     31 H15         17.3570    24.2110     3.0790 ha         1 UST       0.129500
     32 O1          18.8100    23.3780     5.1310 o          1 UST      -0.501100
     33 H6          16.9700    19.6190    -3.1450 h1         1 UST       0.074200
@<TRIPOS>BOND
     1     1     2 1   
     2     1    20 1   
     3     1    32 2   
     4     2     3 ar  
     5     2    15 ar  
     6     3     4 ar  
     7     3    21 1   
     8     4     5 ar  
     9     4    22 1   
    10     5    14 ar  
    11     5    19 1   
    12     6     7 1   
    13     6    16 1   
    14     6    23 1   
    15     6    33 1   
    16     7     8 1   
    17     7    24 1   
    18     7    25 1   
    19     8     9 ar  
    20     8    13 ar  
    21     9    10 ar  
    22     9    16 1   
    23    10    11 ar  
    24    10    26 1   
    25    11    12 ar  
    26    11    27 1   
    27    12    13 ar  
    28    12    28 1   
    29    13    29 1   
    30    14    15 ar  
    31    14    30 1   
    32    15    31 1   
    33    16    19 1   
    34    17    19 2   
    35    18    19 2   
@<TRIPOS>SUBSTRUCTURE
     1 UST         1 TEMP              0 ****  ****    0 ROOT
