@<TRIPOS>MOLECULE
USU
   62    66     1     0     0
SMALL
abcg2


@<TRIPOS>ATOM
      1 C10        -48.9510   -51.5510   -42.6410 ca         1 USU      -0.101000
      2 C13        -46.2720   -51.2640   -41.9000 ca         1 USU      -0.099000
      3 C15        -45.9370   -49.6000   -43.6930 ca         1 USU      -0.086000
      4 C17        -47.7750   -49.0370   -45.1430 ca         1 USU      -0.102000
      5 C21        -49.2940   -53.7360   -49.1860 c6         1 USU       0.104000
      6 C22        -50.4170   -54.7570   -49.1010 c6         1 USU      -0.184400
      7 C28        -45.3420   -55.3710   -48.6560 c3         1 USU       0.155300
      8 C02        -51.5120   -53.5690   -45.6560 c6         1 USU       0.033700
      9 N03        -50.7230   -53.8450   -46.8520 n          1 USU      -0.435800
     10 C04        -49.3530   -53.3240   -46.7920 c6         1 USU       0.275100
     11 C05        -49.4170   -51.8120   -46.6620 c6         1 USU       0.085000
     12 N06        -50.2700   -51.4180   -45.5470 n          1 USU      -0.404800
     13 C08        -48.6200   -49.9050   -44.4940 ca         1 USU      -0.098300
     14 C09        -48.1360   -50.6570   -43.3810 ca         1 USU      -0.017000
     15 C11        -48.4390   -52.2680   -41.5880 ca         1 USU      -0.104000
     16 C12        -47.0850   -52.1310   -41.2160 ca         1 USU      -0.103000
     17 C14        -46.7690   -50.5060   -42.9890 ca         1 USU      -0.039000
     18 C16        -46.4320   -48.8730   -44.7420 ca         1 USU      -0.116000
     19 C18        -51.2950   -52.1660   -45.0890 c          1 USU       0.556000
     20 O19        -52.0540   -51.7890   -44.1940 o          1 USU      -0.570000
     21 N20        -48.5650   -53.7330   -47.9240 n          1 USU      -0.437800
     22 C23        -51.2690   -54.5580   -47.8670 c          1 USU       0.572000
     23 O24        -52.4090   -55.0200   -47.7990 o          1 USU      -0.558000
     24 C25        -47.3530   -54.3510   -47.6740 c          1 USU       0.655100
     25 O26        -46.8690   -54.3610   -46.5380 o          1 USU      -0.630100
     26 N27        -46.7270   -54.9310   -48.7310 ns         1 USU      -0.505900
     27 C29        -44.3610   -54.3580   -49.2050 ca         1 USU      -0.141300
     28 C30        -44.3520   -53.0440   -48.7290 ca         1 USU      -0.073000
     29 C31        -43.4510   -52.1100   -49.2240 ca         1 USU      -0.148000
     30 C32        -42.5570   -52.5130   -50.2010 ca         1 USU       0.170000
     31 F33        -41.6730   -51.6040   -50.6930 f          1 USU      -0.182000
     32 C34        -42.5320   -53.8010   -50.6980 ca         1 USU      -0.148000
     33 C35        -43.4470   -54.7210   -50.1900 ca         1 USU      -0.073000
     34 H1         -49.9940   -51.6640   -42.8970 ha         1 USU       0.130000
     35 H2         -45.2330   -51.1420   -41.6160 ha         1 USU       0.112000
     36 H3         -44.9040   -49.4950   -43.3840 ha         1 USU       0.114000
     37 H4         -48.1460   -48.4760   -45.9920 ha         1 USU       0.108000
     38 H5         -48.6380   -53.9320   -50.0270 h1         1 USU       0.057700
     39 H6         -49.7050   -52.7380   -49.3490 h1         1 USU       0.057700
     40 H7         -51.0780   -54.7010   -49.9660 hc         1 USU       0.084200
     41 H8         -50.0040   -55.7690   -49.0650 hc         1 USU       0.084200
     42 H9         -45.2470   -56.3060   -49.2080 h1         1 USU       0.074200
     43 H10        -45.1280   -55.5800   -47.6090 h1         1 USU       0.074200
     44 H14        -52.5570   -53.6050   -45.9550 h1         1 USU       0.109700
     45 H15        -48.8740   -53.7240   -45.9010 h2         1 USU       0.108700
     46 H16        -48.4100   -51.4480   -46.4680 h1         1 USU       0.060700
     47 H17        -49.7750   -51.3550   -47.5880 h1         1 USU       0.060700
     48 H20        -49.0800   -52.9450   -41.0370 ha         1 USU       0.115000
     49 H21        -46.6940   -52.7060   -40.3860 ha         1 USU       0.114000
     50 H22        -45.7950   -48.1800   -45.2780 ha         1 USU       0.114000
     51 H23        -47.1080   -54.8270   -49.6560 hn         1 USU       0.309500
     52 H24        -45.0560   -52.7440   -47.9630 ha         1 USU       0.123000
     53 H25        -43.4370   -51.0910   -48.8610 ha         1 USU       0.135000
     54 H26        -41.8220   -54.0750   -51.4670 ha         1 USU       0.135000
     55 H27        -43.4470   -55.7340   -50.5730 ha         1 USU       0.123000
     56 C07        -50.0330   -50.0760   -44.9970 c3         1 USU       0.140300
     57 C01        -51.2720   -54.6210   -44.5660 c3         1 USU      -0.099100
     58 H11        -51.8960   -54.4110   -43.6990 hc         1 USU       0.054033
     59 H12        -51.5270   -55.6050   -44.9560 hc         1 USU       0.054033
     60 H13        -50.2280   -54.6270   -44.2490 hc         1 USU       0.054033
     61 H18        -50.2240   -49.3400   -45.7800 h1         1 USU       0.069700
     62 H19        -50.7630   -49.9250   -44.2060 h1         1 USU       0.069700
@<TRIPOS>BOND
     1     1    14 ar  
     2     1    15 ar  
     3     1    34 1   
     4     2    16 ar  
     5     2    17 ar  
     6     2    35 1   
     7     3    17 ar  
     8     3    18 ar  
     9     3    36 1   
    10     4    13 ar  
    11     4    18 ar  
    12     4    37 1   
    13     5     6 1   
    14     5    21 1   
    15     5    38 1   
    16     5    39 1   
    17     6    22 1   
    18     6    40 1   
    19     6    41 1   
    20     7    26 1   
    21     7    27 1   
    22     7    42 1   
    23     7    43 1   
    24     8     9 1   
    25     8    19 1   
    26     8    44 1   
    27     8    57 1   
    28     9    10 1   
    29     9    22 1   
    30    10    11 1   
    31    10    21 1   
    32    10    45 1   
    33    11    12 1   
    34    11    46 1   
    35    11    47 1   
    36    12    19 1   
    37    12    56 1   
    38    13    14 ar  
    39    13    56 1   
    40    14    17 ar  
    41    15    16 ar  
    42    15    48 1   
    43    16    49 1   
    44    18    50 1   
    45    19    20 2   
    46    21    24 1   
    47    22    23 2   
    48    24    25 2   
    49    24    26 1   
    50    26    51 1   
    51    27    28 ar  
    52    27    33 ar  
    53    28    29 ar  
    54    28    52 1   
    55    29    30 ar  
    56    29    53 1   
    57    30    31 1   
    58    30    32 ar  
    59    32    33 ar  
    60    32    54 1   
    61    33    55 1   
    62    56    61 1   
    63    56    62 1   
    64    57    58 1   
    65    57    59 1   
    66    57    60 1   
@<TRIPOS>SUBSTRUCTURE
     1 USU         1 TEMP              0 ****  ****    0 ROOT
