@<TRIPOS>MOLECULE
USU
   62    66     1     0     0
SMALL
No Charge or Current Charge


@<TRIPOS>ATOM
      1 C10        -48.4450   -51.5690   -42.7660 ca         1 USU      -0.101000
      2 C13        -45.7460   -50.8200   -42.5550 ca         1 USU      -0.099000
      3 C15        -46.0630   -49.1250   -44.2670 ca         1 USU      -0.086000
      4 C17        -48.2350   -48.8190   -45.3110 ca         1 USU      -0.102000
      5 C21        -49.2830   -53.6160   -49.2250 c6         1 USU       0.104000
      6 C22        -50.5100   -54.5290   -49.3120 c6         1 USU      -0.184400
      7 C28        -45.4460   -55.5370   -48.7610 c3         1 USU       0.155300
      8 C02        -51.7190   -53.7690   -45.6590 c6         1 USU       0.033700
      9 N03        -50.8850   -53.9880   -46.8820 n          1 USU      -0.435800
     10 C04        -49.5290   -53.4160   -46.7660 c6         1 USU       0.275100
     11 C05        -49.6090   -51.8910   -46.5430 c6         1 USU       0.085000
     12 N06        -50.4750   -51.5350   -45.3820 n          1 USU      -0.404800
     13 C08        -48.7820   -49.8500   -44.5190 ca         1 USU      -0.098300
     14 C09        -47.9510   -50.5270   -43.5860 ca         1 USU      -0.017000
     15 C11        -47.5990   -52.2260   -41.8570 ca         1 USU      -0.104000
     16 C12        -46.2510   -51.8530   -41.7510 ca         1 USU      -0.103000
     17 C14        -46.5880   -50.1560   -43.4690 ca         1 USU      -0.039000
     18 C16        -46.8860   -48.4570   -45.1850 ca         1 USU      -0.116000
     19 C18        -51.4630   -52.4290   -44.8900 c          1 USU       0.556000
     20 O19        -52.1290   -52.1500   -43.9000 o          1 USU      -0.570000
     21 N20        -48.6550   -53.8010   -47.8950 n          1 USU      -0.437800
     22 C23        -51.4530   -54.3270   -48.1270 c          1 USU       0.572000
     23 O24        -52.6600   -54.4610   -48.2670 o          1 USU      -0.558000
     24 C25        -47.4380   -54.4690   -47.6690 c          1 USU       0.655100
     25 O26        -47.0090   -54.6620   -46.5430 o          1 USU      -0.630100
     26 N27        -46.7540   -54.8840   -48.7830 ns         1 USU      -0.505900
     27 C29        -44.3280   -54.5240   -48.9570 ca         1 USU      -0.141300
     28 C30        -43.8130   -53.8170   -47.8510 ca         1 USU      -0.073000
     29 C31        -42.7850   -52.8750   -48.0300 ca         1 USU      -0.148000
     30 C32        -42.2710   -52.6380   -49.3140 ca         1 USU       0.170000
     31 F33        -41.2840   -51.7320   -49.4860 f          1 USU      -0.182000
     32 C34        -42.7780   -53.3350   -50.4200 ca         1 USU      -0.148000
     33 C35        -43.8070   -54.2780   -50.2430 ca         1 USU      -0.073000
     34 H1         -49.4830   -51.8820   -42.8170 ha         1 USU       0.130000
     35 H2         -44.7000   -50.5350   -42.4670 ha         1 USU       0.112000
     36 H3         -45.0170   -48.8390   -44.1780 ha         1 USU       0.114000
     37 H4         -48.8580   -48.2970   -46.0340 ha         1 USU       0.108000
     38 H5         -48.5930   -53.8340   -50.0500 h1         1 USU       0.057700
     39 H6         -49.5950   -52.5680   -49.3420 h1         1 USU       0.057700
     40 H7         -51.0580   -54.4380   -50.2590 hc         1 USU       0.084200
     41 H8         -50.1430   -55.5600   -49.2340 hc         1 USU       0.084200
     42 H9         -45.4130   -56.2870   -49.5640 h1         1 USU       0.074200
     43 H10        -45.3070   -56.0700   -47.8110 h1         1 USU       0.074200
     44 H14        -52.7740   -53.6960   -45.9570 h1         1 USU       0.109700
     45 H15        -49.0950   -53.8440   -45.8490 h2         1 USU       0.108700
     46 H16        -48.5880   -51.5140   -46.3970 h1         1 USU       0.060700
     47 H17        -50.0140   -51.4070   -47.4420 h1         1 USU       0.060700
     48 H20        -47.9910   -53.0270   -41.2330 ha         1 USU       0.115000
     49 H21        -45.5980   -52.3640   -41.0460 ha         1 USU       0.114000
     50 H22        -46.4760   -47.6610   -45.8030 ha         1 USU       0.114000
     51 H23        -47.1710   -54.6780   -49.6780 hn         1 USU       0.309500
     52 H24        -44.2120   -53.9960   -46.8540 ha         1 USU       0.123000
     53 H25        -42.3880   -52.3290   -47.1780 ha         1 USU       0.135000
     54 H26        -42.3760   -53.1450   -51.4120 ha         1 USU       0.135000
     55 H27        -44.1990   -54.8140   -51.1060 ha         1 USU       0.123000
     56 C07        -50.2530   -50.2190   -44.7240 c3         1 USU       0.140300
     57 C01        -51.6000   -54.9730   -44.6850 c3         1 USU      -0.099100
     58 H11        -52.2910   -54.8760   -43.8390 hc         1 USU       0.054033
     59 H12        -51.8380   -55.9140   -45.1960 hc         1 USU       0.054033
     60 H13        -50.5850   -55.0600   -44.2810 hc         1 USU       0.054033
     61 H18        -50.7380   -49.4510   -45.3410 h1         1 USU       0.069700
     62 H19        -50.7510   -50.1840   -43.7460 h1         1 USU       0.069700
@<TRIPOS>BOND
     1     1    14 ar  
     2     1    15 ar  
     3     1    34 1   
     4     2    16 ar  
     5     2    17 ar  
     6     2    35 1   
     7     3    17 ar  
     8     3    18 ar  
     9     3    36 1   
    10     4    13 ar  
    11     4    18 ar  
    12     4    37 1   
    13     5     6 1   
    14     5    21 1   
    15     5    38 1   
    16     5    39 1   
    17     6    22 1   
    18     6    40 1   
    19     6    41 1   
    20     7    26 1   
    21     7    27 1   
    22     7    42 1   
    23     7    43 1   
    24     8     9 1   
    25     8    19 1   
    26     8    44 1   
    27     8    57 1   
    28     9    10 1   
    29     9    22 1   
    30    10    11 1   
    31    10    21 1   
    32    10    45 1   
    33    11    12 1   
    34    11    46 1   
    35    11    47 1   
    36    12    19 1   
    37    12    56 1   
    38    13    14 ar  
    39    13    56 1   
    40    14    17 ar  
    41    15    16 ar  
    42    15    48 1   
    43    16    49 1   
    44    18    50 1   
    45    19    20 2   
    46    21    24 1   
    47    22    23 2   
    48    24    25 2   
    49    24    26 1   
    50    26    51 1   
    51    27    28 ar  
    52    27    33 ar  
    53    28    29 ar  
    54    28    52 1   
    55    29    30 ar  
    56    29    53 1   
    57    30    31 1   
    58    30    32 ar  
    59    32    33 ar  
    60    32    54 1   
    61    33    55 1   
    62    56    61 1   
    63    56    62 1   
    64    57    58 1   
    65    57    59 1   
    66    57    60 1   
@<TRIPOS>SUBSTRUCTURE
     1 USU         1 TEMP              0 ****  ****    0 ROOT
