@<TRIPOS>MOLECULE
USV
   54    57     1     0     0
SMALL
No Charge or Current Charge


@<TRIPOS>ATOM
      1 CAC        -18.1020   -29.1060    -8.3000 ca         1 USV      -0.004500
      2 CAB        -19.2980   -29.7540    -7.9480 ca         1 USV       0.104000
      3 ClAA       -20.4160   -30.2720    -9.2050 cl         1 USV      -0.189500
      4 CAH        -19.6030   -29.9950    -6.5980 ca         1 USV      -0.051000
      5 CAF        -18.7080   -29.5850    -5.5950 ca         1 USV       0.104000
      6 ClAG       -19.0870   -29.8920    -3.9040 cl         1 USV      -0.189500
      7 CAE        -17.5090   -28.9380    -5.9380 ca         1 USV      -0.004500
      8 CAD        -17.2000   -28.6980    -7.2940 ca         1 USV      -0.273500
      9 SAI        -15.6460   -27.9040    -7.7240 sy         1 USV       1.226600
     10 OAJ        -15.4840   -26.7800    -6.7970 o          1 USV      -0.541500
     11 OAK        -15.5450   -27.7390    -9.1760 o          1 USV      -0.541500
     12 N          -14.4880   -29.0570    -7.2330 n3         1 USV      -0.806500
     13 CA         -13.0420   -28.6320    -7.2300 c6         1 USV       0.170500
     14 C          -12.3220   -28.5970    -8.6180 c          1 USV       0.563000
     15 O          -11.8650   -27.5500    -9.0650 o          1 USV      -0.565000
     16 CB         -12.2610   -29.4910    -6.1880 c6         1 USV      -0.077400
     17 CAO        -12.4960   -31.0130    -6.3080 c6         1 USV      -0.076400
     18 CAN        -14.0120   -31.3020    -6.3150 c6         1 USV      -0.085400
     19 CAM        -14.7390   -30.5200    -7.4400 c6         1 USV       0.249500
     20 CBC        -14.4150   -31.1330    -8.8610 c3         1 USV      -0.062500
     21 CBD        -15.6700   -31.6930    -9.5270 c2         1 USV      -0.226200
     22 CBE        -16.4130   -31.1050   -10.4810 c2         1 USV      -0.308000
     23 CBB        -13.5860   -30.2780    -9.8480 c3         1 USV       0.124000
     24 NAT        -12.2760   -29.7910    -9.3620 n          1 USV      -0.396800
     25 CAU        -11.1120   -30.0360   -10.2670 c3         1 USV       0.043700
     26 CAV        -11.2990   -29.7090   -11.7550 ca         1 USV       0.314300
     27 NAW        -11.1180   -28.4210   -12.1370 nb         1 USV      -0.652000
     28 CAX        -11.2700   -28.1130   -13.4450 ca         1 USV       0.340900
     29 CAY        -11.5980   -29.0700   -14.4210 ca         1 USV      -0.160000
     30 CAZ        -11.7740   -30.4070   -14.0350 ca         1 USV      -0.073000
     31 CBA        -11.6170   -30.7280   -12.6770 ca         1 USV      -0.159000
     32 HAC        -17.8840   -28.9290    -9.3510 ha         1 USV       0.156500
     33 HAH        -20.5280   -30.4970    -6.3300 ha         1 USV       0.147000
     34 HAE        -16.8180   -28.6350    -5.1530 ha         1 USV       0.156500
     35 HA         -12.9700   -27.5920    -6.8780 h1         1 USV       0.111700
     36 HB1        -11.1860   -29.2730    -6.2560 hc         1 USV       0.065700
     37 HB2        -12.5660   -29.1710    -5.1830 hc         1 USV       0.065700
     38 HAP        -12.0180   -31.4070    -7.2140 hc         1 USV       0.048200
     39 HAQ        -12.0220   -31.5300    -5.4620 hc         1 USV       0.048200
     40 HAO        -14.4420   -31.0140    -5.3450 hc         1 USV       0.055700
     41 HAN        -14.1940   -32.3800    -6.4170 hc         1 USV       0.055700
     42 HAM        -15.8010   -30.7360    -7.2650 h1         1 USV       0.067700
     43 HBC        -13.7760   -32.0100    -8.7000 hc         1 USV       0.073700
     44 HBD        -15.9560   -32.6820    -9.1590 ha         1 USV       0.173000
     45 HBE        -17.2970   -31.5960   -10.8910 ha         1 USV       0.167500
     46 HB5        -16.1800   -30.1200   -10.8850 ha         1 USV       0.167500
     47 HB4        -14.1680   -29.4160   -10.1870 h1         1 USV       0.050200
     48 HBB        -13.4270   -30.9000   -10.7370 h1         1 USV       0.050200
     49 HB3        -10.8390   -31.0950   -10.1800 h1         1 USV       0.076200
     50 HAU        -10.2490   -29.4690    -9.8960 h1         1 USV       0.076200
     51 HAX        -11.1230   -27.0690   -13.7190 h4         1 USV       0.024100
     52 HAY        -11.7080   -28.7710   -15.4600 ha         1 USV       0.125000
     53 HAZ        -12.0240   -31.1730   -14.7660 ha         1 USV       0.120000
     54 HBA        -11.7430   -31.7530   -12.3400 ha         1 USV       0.120000
@<TRIPOS>BOND
     1     1     2 ar  
     2     1     8 ar  
     3     1    32 1   
     4     2     3 1   
     5     2     4 ar  
     6     4     5 ar  
     7     4    33 1   
     8     5     6 1   
     9     5     7 ar  
    10     7     8 ar  
    11     7    34 1   
    12     8     9 1   
    13     9    10 2   
    14     9    11 2   
    15     9    12 1   
    16    12    13 1   
    17    12    19 1   
    18    13    14 1   
    19    13    16 1   
    20    13    35 1   
    21    14    15 2   
    22    14    24 1   
    23    16    17 1   
    24    16    36 1   
    25    16    37 1   
    26    17    18 1   
    27    17    38 1   
    28    17    39 1   
    29    18    19 1   
    30    18    40 1   
    31    18    41 1   
    32    19    20 1   
    33    19    42 1   
    34    20    21 1   
    35    20    23 1   
    36    20    43 1   
    37    21    22 2   
    38    21    44 1   
    39    22    45 1   
    40    22    46 1   
    41    23    24 1   
    42    23    47 1   
    43    23    48 1   
    44    24    25 1   
    45    25    26 1   
    46    25    49 1   
    47    25    50 1   
    48    26    27 ar  
    49    26    31 ar  
    50    27    28 ar  
    51    28    29 ar  
    52    28    51 1   
    53    29    30 ar  
    54    29    52 1   
    55    30    31 ar  
    56    30    53 1   
    57    31    54 1   
@<TRIPOS>SUBSTRUCTURE
     1 USV         1 TEMP              0 ****  ****    0 ROOT
