@<TRIPOS>MOLECULE
USV
   54    57     1     0     0
SMALL
abcg2


@<TRIPOS>ATOM
      1 CAC        -16.3110   -27.7410    -9.2690 ca         1 USV      -0.004500
      2 CAB        -17.1260   -28.0720   -10.3420 ca         1 USV       0.104000
      3 CLAA       -17.0710   -27.1020   -11.7870 cl         1 USV      -0.189500
      4 CAH        -18.0030   -29.1480   -10.2910 ca         1 USV      -0.051000
      5 CAF        -18.0720   -29.8870    -9.1170 ca         1 USV       0.104000
      6 CLAG       -19.1680   -31.2380    -9.0320 cl         1 USV      -0.189500
      7 CAE        -17.2980   -29.5730    -8.0110 ca         1 USV      -0.004500
      8 CAD        -16.4150   -28.5040    -8.1120 ca         1 USV      -0.273500
      9 SAI        -15.3350   -28.1480    -6.7410 sy         1 USV       1.226600
     10 OAJ        -16.0590   -28.5240    -5.5500 o          1 USV      -0.541500
     11 OAK        -14.8650   -26.7920    -6.8920 o          1 USV      -0.541500
     12 N          -14.0580   -29.1420    -6.9180 n3         1 USV      -0.806500
     13 CA         -12.7290   -28.6350    -7.2590 c6         1 USV       0.170500
     14 C          -12.1230   -29.1110    -8.5870 c          1 USV       0.563000
     15 O          -11.0640   -28.5650    -8.9090 o          1 USV      -0.565000
     16 CB         -11.7700   -28.9050    -6.0880 c6         1 USV      -0.077400
     17 CAO        -11.7830   -30.3750    -5.6730 c6         1 USV      -0.076400
     18 CAN        -13.2060   -30.8370    -5.3570 c6         1 USV      -0.085400
     19 CAM        -14.1680   -30.5530    -6.5120 c6         1 USV       0.249500
     20 CBC        -13.9520   -31.5090    -7.7280 c3         1 USV      -0.062500
     21 CBD        -14.9660   -32.6190    -7.6450 c2         1 USV      -0.226200
     22 CBE        -15.8880   -32.9400    -8.5450 c2         1 USV      -0.308000
     23 CBB        -13.9540   -30.7830    -9.0660 c3         1 USV       0.124000
     24 NAT        -12.7110   -30.0550    -9.3520 n          1 USV      -0.396800
     25 CAU        -12.1070   -30.3720   -10.6470 c3         1 USV       0.043700
     26 CAV        -12.9220   -29.8380   -11.8010 ca         1 USV       0.314300
     27 NAW        -13.1450   -28.5170   -11.8170 nb         1 USV      -0.652000
     28 CAX        -13.8440   -28.0070   -12.8310 ca         1 USV       0.340900
     29 CAY        -14.3550   -28.7750   -13.8710 ca         1 USV      -0.160000
     30 CAZ        -14.1290   -30.1430   -13.8490 ca         1 USV      -0.073000
     31 CBA        -13.4020   -30.6840   -12.7950 ca         1 USV      -0.159000
     32 HAC        -15.6230   -26.9120    -9.3290 ha         1 USV       0.156500
     33 HAH        -18.6240   -29.3960   -11.1390 ha         1 USV       0.147000
     34 HAE        -17.3790   -30.1490    -7.1020 ha         1 USV       0.156500
     35 HA         -12.8180   -27.5600    -7.3890 h1         1 USV       0.111700
     36 HB1        -10.7690   -28.5850    -6.3720 hc         1 USV       0.065700
     37 HB2        -12.0970   -28.2820    -5.2520 hc         1 USV       0.065700
     38 HAP        -11.3550   -30.9870    -6.4730 hc         1 USV       0.048200
     39 HAQ        -11.1460   -30.5190    -4.7990 hc         1 USV       0.048200
     40 HAO        -13.5700   -30.3120    -4.4700 hc         1 USV       0.055700
     41 HAN        -13.2280   -31.9070    -5.1380 hc         1 USV       0.055700
     42 HAM        -15.1830   -30.6910    -6.1510 h1         1 USV       0.067700
     43 HBC        -12.9640   -31.9670    -7.6230 hc         1 USV       0.073700
     44 HBD        -14.9260   -33.1810    -6.7150 ha         1 USV       0.173000
     45 HBE        -16.5810   -33.7510    -8.3610 ha         1 USV       0.167500
     46 HB5        -16.0000   -32.4150    -9.4860 ha         1 USV       0.167500
     47 HB4        -14.8150   -30.1280    -9.1720 h1         1 USV       0.050200
     48 HBB        -14.0360   -31.5290    -9.8520 h1         1 USV       0.050200
     49 HB3        -12.0100   -31.4550   -10.7300 h1         1 USV       0.076200
     50 HAU        -11.1140   -29.9310   -10.6660 h1         1 USV       0.076200
     51 HAX        -14.0080   -26.9360   -12.8110 h4         1 USV       0.024100
     52 HAY        -14.9190   -28.3080   -14.6670 ha         1 USV       0.125000
     53 HAZ        -14.5150   -30.7810   -14.6350 ha         1 USV       0.120000
     54 HBA        -13.2100   -31.7480   -12.7390 ha         1 USV       0.120000
@<TRIPOS>BOND
     1     1     2 ar  
     2     1     8 ar  
     3     1    32 1   
     4     2     3 1   
     5     2     4 ar  
     6     4     5 ar  
     7     4    33 1   
     8     5     6 1   
     9     5     7 ar  
    10     7     8 ar  
    11     7    34 1   
    12     8     9 1   
    13     9    10 2   
    14     9    11 2   
    15     9    12 1   
    16    12    13 1   
    17    12    19 1   
    18    13    14 1   
    19    13    16 1   
    20    13    35 1   
    21    14    15 2   
    22    14    24 1   
    23    16    17 1   
    24    16    36 1   
    25    16    37 1   
    26    17    18 1   
    27    17    38 1   
    28    17    39 1   
    29    18    19 1   
    30    18    40 1   
    31    18    41 1   
    32    19    20 1   
    33    19    42 1   
    34    20    21 1   
    35    20    23 1   
    36    20    43 1   
    37    21    22 2   
    38    21    44 1   
    39    22    45 1   
    40    22    46 1   
    41    23    24 1   
    42    23    47 1   
    43    23    48 1   
    44    24    25 1   
    45    25    26 1   
    46    25    49 1   
    47    25    50 1   
    48    26    27 ar  
    49    26    31 ar  
    50    27    28 ar  
    51    28    29 ar  
    52    28    51 1   
    53    29    30 ar  
    54    29    52 1   
    55    30    31 ar  
    56    30    53 1   
    57    31    54 1   
@<TRIPOS>SUBSTRUCTURE
     1 USV         1 TEMP              0 ****  ****    0 ROOT
