@<TRIPOS>MOLECULE
USW
   34    36     1     0     0
SMALL
No Charge or Current Charge


@<TRIPOS>ATOM
      1 C02         13.5420    19.4770     0.7060 ca         1 USW       0.153000
      2 C03         13.2750    20.7050     0.0870 ca         1 USW      -0.131000
      3 C04         14.2380    21.2990    -0.7490 ca         1 USW      -0.044000
      4 C05         15.4970    20.6890    -0.9560 ca         1 USW       0.149000
      5 C09         17.9130    22.5560     0.0880 ca         1 USW      -0.282500
      6 C10         17.1740    22.4280     1.2830 ca         1 USW      -0.029500
      7 C11         17.8330    22.1790     2.4980 ca         1 USW      -0.082500
      8 C12         19.2390    22.0590     2.5380 ca         1 USW      -0.146600
      9 C13         19.9750    22.1960     1.3430 ca         1 USW      -0.082500
     10 C14         19.3190    22.4450     0.1250 ca         1 USW      -0.029500
     11 C15         19.9580    21.7910     3.8350 c          1 USW       0.576500
     12 C18         17.5290    20.3380    -2.3390 c6         1 USW       0.156800
     13 C19         18.0030    19.3720    -1.2230 c6         1 USW       0.127600
     14 C21         15.7310    19.4190    -0.3490 ca         1 USW       0.134100
     15 C22         14.7610    18.8280     0.4760 ca         1 USW      -0.137000
     16 N06         16.4800    21.2650    -1.8130 nh         1 USW      -0.714300
     17 O08         15.8990    23.7140    -1.2130 o          1 USW      -0.523500
     18 O17         18.0420    23.2080    -2.5040 o          1 USW      -0.523500
     19 O20         16.8910    18.7050    -0.5870 os         1 USW      -0.329100
     20 S07         17.0590    22.8560    -1.4730 sy         1 USW       1.150600
     21 Cl1         12.3310    18.7320     1.7400 cl         1 USW      -0.188000
     22 H1          12.3150    21.1920     0.2420 ha         1 USW       0.140000
     23 H2          13.9840    22.2250    -1.2550 ha         1 USW       0.150000
     24 H3          16.0890    22.5180     1.2740 ha         1 USW       0.142500
     25 H4          17.2460    22.0790     3.4090 ha         1 USW       0.131500
     26 H5          21.0600    22.1100     1.3540 ha         1 USW       0.131500
     27 H6          19.9080    22.5440    -0.7850 ha         1 USW       0.142500
     28 H7          21.0660    21.7140     3.7670 h4         1 USW      -0.002800
     29 H10         17.1120    19.7440    -3.1650 h1         1 USW       0.089200
     30 H11         18.4080    20.8570    -2.7460 h1         1 USW       0.089200
     31 H12         18.6870    18.6180    -1.6350 h1         1 USW       0.067200
     32 H13         18.5490    19.9350    -0.4560 h1         1 USW       0.067200
     33 H14         14.9550    17.8610     0.9320 ha         1 USW       0.147000
     34 O1          19.3860    21.6610     4.9130 o          1 USW      -0.497100
@<TRIPOS>BOND
     1     1     2 ar  
     2     1    15 ar  
     3     1    21 1   
     4     2     3 ar  
     5     2    22 1   
     6     3     4 ar  
     7     3    23 1   
     8     4    14 ar  
     9     4    16 1   
    10     5     6 ar  
    11     5    10 ar  
    12     5    20 1   
    13     6     7 ar  
    14     6    24 1   
    15     7     8 ar  
    16     7    25 1   
    17     8     9 ar  
    18     8    11 1   
    19     9    10 ar  
    20     9    26 1   
    21    10    27 1   
    22    11    28 1   
    23    11    34 2   
    24    12    13 1   
    25    12    16 1   
    26    12    29 1   
    27    12    30 1   
    28    13    19 1   
    29    13    31 1   
    30    13    32 1   
    31    14    15 ar  
    32    14    19 1   
    33    15    33 1   
    34    16    20 1   
    35    17    20 2   
    36    18    20 2   
@<TRIPOS>SUBSTRUCTURE
     1 USW         1 TEMP              0 ****  ****    0 ROOT
