@<TRIPOS>MOLECULE
USW
   34    36     1     0     0
SMALL
bcc


@<TRIPOS>ATOM
      1 C02         13.4180    19.4650     0.4750 ca         1 USW       0.061400
      2 C03         13.1500    20.6480    -0.2000 ca         1 USW      -0.149000
      3 C04         14.1630    21.2370    -0.9330 ca         1 USW      -0.062000
      4 C05         15.4410    20.6860    -0.9710 ca         1 USW       0.010600
      5 C09         17.9690    22.5600     0.2030 ca         1 USW      -0.282500
      6 C10         17.2760    22.3680     1.3950 ca         1 USW      -0.047500
      7 C11         17.9940    22.1280     2.5510 ca         1 USW      -0.100500
      8 C12         19.3870    22.0930     2.5140 ca         1 USW      -0.146600
      9 C13         20.0610    22.2990     1.3160 ca         1 USW      -0.100500
     10 C14         19.3540    22.5330     0.1470 ca         1 USW      -0.047500
     11 C15         20.1730    21.8450     3.7410 c          1 USW       0.576500
     12 C18         17.4570    20.2880    -2.2070 c6         1 USW       0.156800
     13 C19         17.9290    19.4060    -1.0700 c6         1 USW       0.104400
     14 C21         15.6770    19.4680    -0.3220 ca         1 USW       0.134100
     15 C22         14.6570    18.8610     0.4080 ca         1 USW      -0.155000
     16 N06         16.4840    21.2730    -1.7310 nh         1 USW      -0.575900
     17 O08         15.8850    23.5980    -0.9790 o          1 USW      -0.594300
     18 O17         17.9680    23.2030    -2.3320 o          1 USW      -0.594300
     19 O20         16.8390    18.8020    -0.3880 os         1 USW      -0.305900
     20 S07         17.0470    22.7910    -1.2920 sy         1 USW       1.292200
     21 CL1         12.1660    18.7130     1.4040 cl         1 USW      -0.096400
     22 H1          12.1660    21.0950    -0.1710 ha         1 USW       0.158000
     23 H2          13.9530    22.1370    -1.4900 ha         1 USW       0.168000
     24 H3          16.1960    22.4120     1.4330 ha         1 USW       0.160500
     25 H4          17.4690    21.9750     3.4850 ha         1 USW       0.149500
     26 H5          21.1440    22.2780     1.2900 ha         1 USW       0.149500
     27 H6          19.8810    22.6880    -0.7840 ha         1 USW       0.160500
     28 H7          21.2670    21.8440     3.5930 h4         1 USW      -0.002800
     29 H10         16.9630    19.6960    -2.9790 h1         1 USW       0.089200
     30 H11         18.3070    20.7790    -2.6750 h1         1 USW       0.089200
     31 H12         18.5460    18.5940    -1.4550 h1         1 USW       0.067200
     32 H13         18.5290    19.9740    -0.3560 h1         1 USW       0.067200
     33 H14         14.8530    17.9240     0.9130 ha         1 USW       0.165000
     34 O1          19.6850    21.6580     4.8280 o          1 USW      -0.497100
@<TRIPOS>BOND
     1     1     2 ar  
     2     1    15 ar  
     3     1    21 1   
     4     2     3 ar  
     5     2    22 1   
     6     3     4 ar  
     7     3    23 1   
     8     4    14 ar  
     9     4    16 1   
    10     5     6 ar  
    11     5    10 ar  
    12     5    20 1   
    13     6     7 ar  
    14     6    24 1   
    15     7     8 ar  
    16     7    25 1   
    17     8     9 ar  
    18     8    11 1   
    19     9    10 ar  
    20     9    26 1   
    21    10    27 1   
    22    11    28 1   
    23    11    34 2   
    24    12    13 1   
    25    12    16 1   
    26    12    29 1   
    27    12    30 1   
    28    13    19 1   
    29    13    31 1   
    30    13    32 1   
    31    14    15 ar  
    32    14    19 1   
    33    15    33 1   
    34    16    20 1   
    35    17    20 2   
    36    18    20 2   
@<TRIPOS>SUBSTRUCTURE
     1 USW         1 TEMP              0 ****  ****    0 ROOT
