@<TRIPOS>MOLECULE
USX
   47    49     1     0     0
SMALL
No Charge or Current Charge


@<TRIPOS>ATOM
      1 C1           5.8820    -7.8870   -11.9860 ca         1 USX      -0.156000
      2 C10          8.9570    -3.8300   -10.8020 ca         1 USX      -0.082300
      3 C11          5.4520    -2.5770   -12.2500 c          1 USX       0.617100
      4 C12          4.0740    -2.6750   -11.6040 c3         1 USX      -0.176100
      5 C13          9.9440    -4.8310   -10.7450 ca         1 USX      -0.103000
      6 C14         10.1100    -5.6020    -9.5830 ca         1 USX      -0.170000
      7 C15          9.2810    -5.3820    -8.4590 ca         1 USX       0.109100
      8 C16          8.2870    -4.3760    -8.5100 ca         1 USX       0.117100
      9 C17          8.1370    -3.6000    -9.6820 ca         1 USX      -0.162000
     10 C18          6.4050    -3.2280    -7.3840 c3         1 USX       0.147900
     11 C2           4.9400    -7.1110   -11.2800 ca         1 USX      -0.049000
     12 C20         10.3910    -7.1830    -7.1610 c3         1 USX       0.070600
     13 C21         10.3270    -7.8640    -5.7730 c          1 USX       0.607100
     14 C3           5.0080    -5.7030   -11.3090 ca         1 USX      -0.160000
     15 C4           6.0380    -5.0850   -12.0450 ca         1 USX       0.029000
     16 C5           6.9590    -5.8620   -12.7400 ca         1 USX      -0.238600
     17 C6           6.9040    -7.2640   -12.7250 ca         1 USX      -0.006000
     18 C7           7.9780    -5.0270   -13.4430 c          1 USX       0.588700
     19 C8           8.7550    -3.0220   -12.0820 c3         1 USX      -0.026100
     20 C9           7.6330    -3.5780   -13.0000 c5         1 USX      -0.003300
     21 N23         11.2160    -8.8650    -5.5650 nt         1 USX      -0.620000
     22 N8           6.3200    -3.7040   -12.2990 n          1 USX      -0.219400
     23 O1           7.4790    -4.1840    -7.4010 os         1 USX      -0.313100
     24 O10          8.8520    -5.4320   -14.2000 o          1 USX      -0.508100
     25 O13          5.8110    -1.4970   -12.7050 o          1 USX      -0.577100
     26 O19          9.4110    -6.1290    -7.3000 os         1 USX      -0.290100
     27 O22          9.5440    -7.5550    -4.8870 o          1 USX      -0.561100
     28 H1           5.8200    -8.9730   -11.9570 ha         1 USX       0.122000
     29 H2           3.5170    -1.7340   -11.6780 hc         1 USX       0.068033
     30 H3           3.5160    -3.5010   -12.0560 hc         1 USX       0.068033
     31 H4           4.1950    -2.9680   -10.5570 hc         1 USX       0.068033
     32 H5          10.5820    -5.0180   -11.6060 ha         1 USX       0.121000
     33 H6          10.8810    -6.3660    -9.5760 ha         1 USX       0.115000
     34 H7           7.3800    -2.8250    -9.7440 ha         1 USX       0.120000
     35 H8           5.8890    -3.2540    -6.4160 h1         1 USX       0.037700
     36 H9           6.7860    -2.2110    -7.5390 h1         1 USX       0.037700
     37 H10          5.6700    -3.4540    -8.1670 h1         1 USX       0.037700
     38 H11          4.1570    -7.6020   -10.7060 ha         1 USX       0.116000
     39 H12         10.2300    -7.9610    -7.9180 h1         1 USX       0.045200
     40 H13         11.4060    -6.7860    -7.2880 h1         1 USX       0.045200
     41 H14          4.2810    -5.1430   -10.7350 ha         1 USX       0.122000
     42 H15          7.6370    -7.8590   -13.2670 ha         1 USX       0.131000
     43 H17          9.6950    -2.9750   -12.6460 hc         1 USX       0.071700
     44 H18          8.5250    -1.9810   -11.8220 hc         1 USX       0.071700
     45 H19          7.5520    -2.9670   -13.9080 h1         1 USX       0.103700
     46 H20         11.2180    -9.3440    -4.6760 hn         1 USX       0.315000
     47 H21         11.8670    -9.1270    -6.2910 hn         1 USX       0.315000
@<TRIPOS>BOND
     1     1    11 ar  
     2     1    17 ar  
     3     1    28 1   
     4     2     5 ar  
     5     2     9 ar  
     6     2    19 1   
     7     3     4 1   
     8     3    22 1   
     9     3    25 2   
    10     4    29 1   
    11     4    30 1   
    12     4    31 1   
    13     5     6 ar  
    14     5    32 1   
    15     6     7 ar  
    16     6    33 1   
    17     7     8 ar  
    18     7    26 1   
    19     8     9 ar  
    20     8    23 1   
    21     9    34 1   
    22    10    23 1   
    23    10    35 1   
    24    10    36 1   
    25    10    37 1   
    26    11    14 ar  
    27    11    38 1   
    28    12    13 1   
    29    12    26 1   
    30    12    39 1   
    31    12    40 1   
    32    13    21 1   
    33    13    27 2   
    34    14    15 ar  
    35    14    41 1   
    36    15    16 ar  
    37    15    22 1   
    38    16    17 ar  
    39    16    18 1   
    40    17    42 1   
    41    18    20 1   
    42    18    24 2   
    43    19    20 1   
    44    19    43 1   
    45    19    44 1   
    46    20    22 1   
    47    20    45 1   
    48    21    46 1   
    49    21    47 1   
@<TRIPOS>SUBSTRUCTURE
     1 USX         1 TEMP              0 ****  ****    0 ROOT
