@<TRIPOS>MOLECULE
USX
   47    49     1     0     0
SMALL
abcg2


@<TRIPOS>ATOM
      1 C1           6.0290    -7.9230   -12.0680 ca         1 USX      -0.156000
      2 C10          8.9210    -3.8460   -10.8360 ca         1 USX      -0.082300
      3 C11          5.5560    -2.6670   -12.0050 c          1 USX       0.617100
      4 C12          4.2280    -2.8610   -11.3370 c3         1 USX      -0.176100
      5 C13          9.8390    -4.8790   -10.7860 ca         1 USX      -0.103000
      6 C14          9.9720    -5.6600    -9.6390 ca         1 USX      -0.170000
      7 C15          9.1860    -5.4170    -8.5270 ca         1 USX       0.109100
      8 C16          8.2450    -4.3670    -8.5650 ca         1 USX       0.117100
      9 C17          8.1310    -3.5960    -9.7090 ca         1 USX      -0.162000
     10 C18          6.5270    -3.1920    -7.4400 c3         1 USX       0.147900
     11 C2           5.1140    -7.1710   -11.3310 ca         1 USX      -0.049000
     12 C20         10.2170    -7.1010    -7.2440 c3         1 USX       0.070600
     13 C21         10.1970    -7.6140    -5.8110 c          1 USX       0.607100
     14 C3           5.1240    -5.7840   -11.3200 ca         1 USX      -0.160000
     15 C4           6.0830    -5.1270   -12.0870 ca         1 USX       0.029000
     16 C5           7.0110    -5.8850   -12.8060 ca         1 USX      -0.238600
     17 C6           6.9950    -7.2720   -12.8120 ca         1 USX      -0.006000
     18 C7           7.9550    -4.9850   -13.4500 c          1 USX       0.588700
     19 C8           8.7250    -3.0310   -12.0830 c3         1 USX      -0.026100
     20 C9           7.6020    -3.5830   -12.9830 c5         1 USX      -0.003300
     21 N23         10.9090    -8.7380    -5.6430 nt         1 USX      -0.620000
     22 N8           6.3390    -3.7650   -12.2670 n          1 USX      -0.219400
     23 O1           7.5210    -4.1940    -7.4450 os         1 USX      -0.313100
     24 O10          8.8820    -5.2630   -14.1760 o          1 USX      -0.508100
     25 O13          5.9560    -1.5610   -12.3190 o          1 USX      -0.577100
     26 O19          9.2420    -6.1040    -7.3670 os         1 USX      -0.290100
     27 O22          9.6120    -7.0350    -4.9150 o          1 USX      -0.561100
     28 H1           5.9860    -9.0030   -12.0430 ha         1 USX       0.122000
     29 H2           3.7040    -1.9090   -11.3260 hc         1 USX       0.068033
     30 H3           3.6070    -3.5940   -11.8520 hc         1 USX       0.068033
     31 H4           4.3550    -3.1880   -10.3040 hc         1 USX       0.068033
     32 H5          10.4700    -5.0920   -11.6390 ha         1 USX       0.121000
     33 H6          10.7020    -6.4570    -9.6380 ha         1 USX       0.115000
     34 H7           7.4340    -2.7680    -9.7380 ha         1 USX       0.120000
     35 H8           6.0450    -3.2390    -6.4670 h1         1 USX       0.037700
     36 H9           6.9490    -2.1920    -7.5740 h1         1 USX       0.037700
     37 H10          5.7730    -3.3610    -8.2150 h1         1 USX       0.037700
     38 H11          4.3690    -7.6820   -10.7340 ha         1 USX       0.116000
     39 H12         10.0430    -7.9280    -7.9430 h1         1 USX       0.045200
     40 H13         11.2230    -6.7110    -7.4500 h1         1 USX       0.045200
     41 H14          4.4010    -5.2680   -10.7100 ha         1 USX       0.122000
     42 H15          7.7340    -7.8230   -13.3800 ha         1 USX       0.131000
     43 H17          9.6390    -3.0150   -12.6800 hc         1 USX       0.071700
     44 H18          8.4890    -1.9970   -11.8340 hc         1 USX       0.071700
     45 H19          7.4650    -2.9210   -13.8410 h1         1 USX       0.103700
     46 H20         11.0190    -9.1380    -4.7260 hn         1 USX       0.315000
     47 H21         11.3730    -9.1990    -6.4070 hn         1 USX       0.315000
@<TRIPOS>BOND
     1     1    11 ar  
     2     1    17 ar  
     3     1    28 1   
     4     2     5 ar  
     5     2     9 ar  
     6     2    19 1   
     7     3     4 1   
     8     3    22 1   
     9     3    25 2   
    10     4    29 1   
    11     4    30 1   
    12     4    31 1   
    13     5     6 ar  
    14     5    32 1   
    15     6     7 ar  
    16     6    33 1   
    17     7     8 ar  
    18     7    26 1   
    19     8     9 ar  
    20     8    23 1   
    21     9    34 1   
    22    10    23 1   
    23    10    35 1   
    24    10    36 1   
    25    10    37 1   
    26    11    14 ar  
    27    11    38 1   
    28    12    13 1   
    29    12    26 1   
    30    12    39 1   
    31    12    40 1   
    32    13    21 1   
    33    13    27 2   
    34    14    15 ar  
    35    14    41 1   
    36    15    16 ar  
    37    15    22 1   
    38    16    17 ar  
    39    16    18 1   
    40    17    42 1   
    41    18    20 1   
    42    18    24 2   
    43    19    20 1   
    44    19    43 1   
    45    19    44 1   
    46    20    22 1   
    47    20    45 1   
    48    21    46 1   
    49    21    47 1   
@<TRIPOS>SUBSTRUCTURE
     1 USX         1 TEMP              0 ****  ****    0 ROOT
