@<TRIPOS>MOLECULE
USZ
   66    68     1     0     0
SMALL
No Charge or Current Charge


@<TRIPOS>ATOM
      1 N1         -19.7710     6.8160    29.1390 ns         1 USZ      -0.499900
      2 C4         -19.0620     5.9540    28.3240 c          1 USZ       0.591100
      3 C5         -19.6270     6.8990    30.5940 c3         1 USZ       0.104000
      4 C6         -20.4130     5.7800    31.3040 c3         1 USZ      -0.064100
      5 C7         -20.3390     5.8920    32.8180 ca         1 USZ      -0.052300
      6 C8         -21.3320     6.5960    33.5270 ca         1 USZ      -0.156000
      7 C10        -20.2050     6.0920    35.6280 ca         1 USZ      -0.152000
      8 C13        -18.5770     5.1010    25.9520 ca         1 USZ      -0.128300
      9 C15        -16.8820     3.6160    24.3540 ca         1 USZ       0.342900
     10 C17        -17.3930     5.6990    25.4800 ca         1 USZ      -0.055000
     11 C20        -23.6960     4.9720    29.1940 ca         1 USZ      -0.108000
     12 C21        -23.2580     3.7950    29.8430 ca         1 USZ      -0.054300
     13 C22        -22.0510     3.2080    29.3930 ca         1 USZ      -0.108000
     14 C24        -24.1010     3.2000    31.0040 c3         1 USZ      -0.002700
     15 C26        -23.4890     1.9000    31.5970 c3         1 USZ      -0.084433
     16 C9         -21.2620     6.6920    34.9260 ca         1 USZ       0.171000
     17 C11        -19.2100     5.3910    34.9260 ca         1 USZ      -0.083000
     18 C12        -19.2780     5.2920    33.5240 ca         1 USZ      -0.121000
     19 O1         -18.1480     5.2650    28.7610 o          1 USZ      -0.578100
     20 C3         -19.5380     5.9030    26.8400 c3         1 USZ       0.097000
     21 C16        -16.5350     4.9390    24.6690 ca         1 USZ      -0.165000
     22 N2         -18.0170     3.0300    24.7990 nb         1 USZ      -0.671000
     23 C14        -18.8410     3.7650    25.5820 ca         1 USZ       0.377900
     24 N          -20.9870     5.5570    26.6480 n          1 USZ      -0.246400
     25 C2         -21.5700     5.8440    25.3810 c          1 USZ       0.605100
     26 C1         -22.8630     5.1190    24.9520 c3         1 USZ      -0.152400
     27 C          -22.5360     3.7850    24.2460 c3         1 USZ      -0.085100
     28 O          -21.0100     6.5860    24.5810 o          1 USZ      -0.581100
     29 C18        -21.7140     5.0020    27.7660 ca         1 USZ      -0.070000
     30 C23        -21.3030     3.7950    28.3590 ca         1 USZ      -0.103500
     31 C27        -25.5260     2.8660    30.4880 c3         1 USZ      -0.084433
     32 C25        -24.1960     4.2440    32.1490 c3         1 USZ      -0.084433
     33 C19        -22.9470     5.5540    28.1580 ca         1 USZ      -0.103500
     34 H1         -20.5300     7.3270    28.7030 hn         1 USZ       0.314500
     35 H2         -18.5640     6.8350    30.8620 h1         1 USZ       0.061200
     36 H3         -20.0020     7.8760    30.9280 h1         1 USZ       0.061200
     37 H4         -21.4590     5.8210    30.9770 hc         1 USZ       0.060700
     38 H5         -20.0290     4.8060    30.9790 hc         1 USZ       0.060700
     39 H6         -22.1570     7.0660    32.9990 ha         1 USZ       0.127000
     40 H7         -20.1590     6.1720    36.7110 ha         1 USZ       0.132000
     41 H8         -16.2340     3.0050    23.7260 h4         1 USZ       0.017100
     42 H9         -17.1410     6.7270    25.7350 ha         1 USZ       0.114000
     43 H10        -24.6250     5.4510    29.4910 ha         1 USZ       0.119000
     44 H11        -21.6670     2.2930    29.8320 ha         1 USZ       0.119000
     45 H12        -24.1100     1.5120    32.4130 hc         1 USZ       0.037367
     46 H13        -23.4170     1.1130    30.8350 hc         1 USZ       0.037367
     47 H14        -22.4870     2.0840    32.0050 hc         1 USZ       0.037367
     48 H15        -18.3880     4.9240    35.4650 ha         1 USZ       0.119000
     49 H16        -18.5050     4.7470    32.9870 ha         1 USZ       0.125000
     50 H17        -19.4450     6.9490    26.5210 h1         1 USZ       0.062700
     51 H18        -15.6120     5.3640    24.2850 ha         1 USZ       0.122000
     52 H19        -19.7470     3.2600    25.9100 h4         1 USZ       0.021100
     53 H20        -23.4180     5.7550    24.2530 hc         1 USZ       0.066200
     54 H21        -23.4930     4.8620    25.8040 hc         1 USZ       0.066200
     55 H22        -23.4580     3.2930    23.9120 hc         1 USZ       0.042700
     56 H23        -21.9000     3.9540    23.3680 hc         1 USZ       0.042700
     57 H24        -22.0130     3.1040    24.9270 hc         1 USZ       0.042700
     58 H25        -20.3840     3.3100    28.0430 ha         1 USZ       0.124500
     59 H26        -26.1320     2.4070    31.2790 hc         1 USZ       0.037367
     60 H27        -26.0560     3.7630    30.1470 hc         1 USZ       0.037367
     61 H28        -25.4780     2.1620    29.6480 hc         1 USZ       0.037367
     62 H29        -24.7760     3.8500    32.9920 hc         1 USZ       0.037367
     63 H30        -23.1970     4.5030    32.5190 hc         1 USZ       0.037367
     64 H31        -24.6830     5.1680    31.8160 hc         1 USZ       0.037367
     65 H32        -23.3160     6.4600    27.6820 ha         1 USZ       0.124500
     66 F          -22.2190     7.3660    35.6000 f          1 USZ      -0.181000
@<TRIPOS>BOND
     1     1     2 1   
     2     1     3 1   
     3     1    34 1   
     4     2    19 2   
     5     2    20 1   
     6     3     4 1   
     7     3    35 1   
     8     3    36 1   
     9     4     5 1   
    10     4    37 1   
    11     4    38 1   
    12     5     6 ar  
    13     5    18 ar  
    14     6    16 ar  
    15     6    39 1   
    16     7    16 ar  
    17     7    17 ar  
    18     7    40 1   
    19     8    10 ar  
    20     8    20 1   
    21     8    23 ar  
    22     9    21 ar  
    23     9    22 ar  
    24     9    41 1   
    25    10    21 ar  
    26    10    42 1   
    27    11    12 ar  
    28    11    33 ar  
    29    11    43 1   
    30    12    13 ar  
    31    12    14 1   
    32    13    30 ar  
    33    13    44 1   
    34    14    15 1   
    35    14    31 1   
    36    14    32 1   
    37    15    45 1   
    38    15    46 1   
    39    15    47 1   
    40    16    66 1   
    41    17    18 ar  
    42    17    48 1   
    43    18    49 1   
    44    20    24 1   
    45    20    50 1   
    46    21    51 1   
    47    22    23 ar  
    48    23    52 1   
    49    24    25 1   
    50    24    29 1   
    51    25    26 1   
    52    25    28 2   
    53    26    27 1   
    54    26    53 1   
    55    26    54 1   
    56    27    55 1   
    57    27    56 1   
    58    27    57 1   
    59    29    30 ar  
    60    29    33 ar  
    61    30    58 1   
    62    31    59 1   
    63    31    60 1   
    64    31    61 1   
    65    32    62 1   
    66    32    63 1   
    67    32    64 1   
    68    33    65 1   
@<TRIPOS>SUBSTRUCTURE
     1 USZ         1 TEMP              0 ****  ****    0 ROOT
