@<TRIPOS>MOLECULE
USZ
   66    68     1     0     0
SMALL
bcc


@<TRIPOS>ATOM
      1 N1         -19.7360     6.8080    29.0680 ns         1 USZ      -0.566900
      2 C4         -19.3820     5.7770    28.2910 c          1 USZ       0.658100
      3 C5         -19.5620     6.7920    30.5030 c3         1 USZ       0.104000
      4 C6         -20.6740     6.0150    31.2150 c3         1 USZ      -0.064100
      5 C7         -20.4480     5.9750    32.6970 ca         1 USZ      -0.052300
      6 C8         -20.9360     6.9970    33.5080 ca         1 USZ      -0.174000
      7 C10        -19.9740     5.9360    35.4620 ca         1 USZ      -0.170000
      8 C13        -18.6250     5.4390    25.9720 ca         1 USZ      -0.193600
      9 C15        -16.4840     4.5070    24.5710 ca         1 USZ       0.408200
     10 C17        -17.6650     6.3370    25.5300 ca         1 USZ      -0.073000
     11 C20        -23.5360     5.0440    29.2790 ca         1 USZ      -0.126000
     12 C21        -23.3430     3.7680    29.8160 ca         1 USZ      -0.054300
     13 C22        -22.3580     2.9740    29.2350 ca         1 USZ      -0.126000
     14 C24        -24.1770     3.3120    31.0070 c3         1 USZ      -0.002700
     15 C26        -23.8960     1.8590    31.3880 c3         1 USZ      -0.084433
     16 C9         -20.6900     6.9570    34.8660 ca         1 USZ       0.135900
     17 C11        -19.4900     4.9210    34.6480 ca         1 USZ      -0.101000
     18 C12        -19.7230     4.9390    33.2800 ca         1 USZ      -0.139000
     19 O1         -18.7720     4.8020    28.6940 o          1 USZ      -0.578100
     20 C3         -19.7790     5.9200    26.8120 c3         1 USZ       0.097000
     21 C16        -16.5730     5.8680    24.8170 ca         1 USZ      -0.248300
     22 N2         -17.3960     3.6350    24.9870 nb         1 USZ      -0.671000
     23 C14        -18.4340     4.0960    25.6720 ca         1 USZ       0.443200
     24 N          -21.0190     5.1790    26.5590 n          1 USZ      -0.406000
     25 C2         -21.5340     5.2530    25.2930 c          1 USZ       0.672100
     26 C1         -22.7560     4.4170    24.9890 c3         1 USZ      -0.152400
     27 C          -22.3460     2.9910    24.6190 c3         1 USZ      -0.085100
     28 O          -20.9730     5.9000    24.4270 o          1 USZ      -0.581100
     29 C18        -21.7980     4.6960    27.6520 ca         1 USZ       0.022600
     30 C23        -21.5930     3.4270    28.1680 ca         1 USZ      -0.121500
     31 C27        -25.6690     3.4400    30.6720 c3         1 USZ      -0.084433
     32 C25        -23.8470     4.1970    32.2160 c3         1 USZ      -0.084433
     33 C19        -22.7760     5.5050    28.2200 ca         1 USZ      -0.121500
     34 H1         -20.2870     7.5530    28.6710 hn         1 USZ       0.314500
     35 H2         -18.5900     6.3580    30.7400 h1         1 USZ       0.061200
     36 H3         -19.5470     7.8260    30.8490 h1         1 USZ       0.061200
     37 H4         -21.6360     6.4800    30.9920 hc         1 USZ       0.060700
     38 H5         -20.7150     5.0000    30.8160 hc         1 USZ       0.060700
     39 H6         -21.5080     7.8140    33.0840 ha         1 USZ       0.145000
     40 H7         -19.8030     5.9320    36.5310 ha         1 USZ       0.150000
     41 H8         -15.6440     4.1040    24.0160 h4         1 USZ       0.017100
     42 H9         -17.7700     7.3960    25.7380 ha         1 USZ       0.132000
     43 H10        -24.2850     5.7030    29.7000 ha         1 USZ       0.137000
     44 H11        -22.1660     1.9770    29.6090 ha         1 USZ       0.137000
     45 H12        -24.5160     1.5770    32.2400 hc         1 USZ       0.037367
     46 H13        -24.1240     1.1690    30.5730 hc         1 USZ       0.037367
     47 H14        -22.8550     1.7060    31.6810 hc         1 USZ       0.037367
     48 H15        -18.9300     4.1080    35.0910 ha         1 USZ       0.137000
     49 H16        -19.3420     4.1370    32.6590 ha         1 USZ       0.143000
     50 H17        -19.9450     6.9800    26.5910 h1         1 USZ       0.062700
     51 H18        -15.8080     6.5420    24.4560 ha         1 USZ       0.140000
     52 H19        -19.1630     3.3560    25.9880 h4         1 USZ       0.021100
     53 H20        -23.2660     4.8830    24.1450 hc         1 USZ       0.066200
     54 H21        -23.4600     4.3920    25.8200 hc         1 USZ       0.066200
     55 H22        -23.2230     2.4120    24.3330 hc         1 USZ       0.042700
     56 H23        -21.6530     2.9850    23.7770 hc         1 USZ       0.042700
     57 H24        -21.8670     2.4800    25.4540 hc         1 USZ       0.042700
     58 H25        -20.8360     2.7850    27.7360 ha         1 USZ       0.142500
     59 H26        -26.2730     3.0940    31.5120 hc         1 USZ       0.037367
     60 H27        -25.9580     4.4710    30.4670 hc         1 USZ       0.037367
     61 H28        -25.9310     2.8370    29.8010 hc         1 USZ       0.037367
     62 H29        -24.4510     3.9000    33.0770 hc         1 USZ       0.037367
     63 H30        -22.7960     4.1040    32.4980 hc         1 USZ       0.037367
     64 H31        -24.0470     5.2510    32.0200 hc         1 USZ       0.037367
     65 H32        -22.9450     6.5000    27.8250 ha         1 USZ       0.142500
     66 F          -21.1720     7.9470    35.6350 f          1 USZ      -0.145900
@<TRIPOS>BOND
     1     1     2 1   
     2     1     3 1   
     3     1    34 1   
     4     2    19 2   
     5     2    20 1   
     6     3     4 1   
     7     3    35 1   
     8     3    36 1   
     9     4     5 1   
    10     4    37 1   
    11     4    38 1   
    12     5     6 ar  
    13     5    18 ar  
    14     6    16 ar  
    15     6    39 1   
    16     7    16 ar  
    17     7    17 ar  
    18     7    40 1   
    19     8    10 ar  
    20     8    20 1   
    21     8    23 ar  
    22     9    21 ar  
    23     9    22 ar  
    24     9    41 1   
    25    10    21 ar  
    26    10    42 1   
    27    11    12 ar  
    28    11    33 ar  
    29    11    43 1   
    30    12    13 ar  
    31    12    14 1   
    32    13    30 ar  
    33    13    44 1   
    34    14    15 1   
    35    14    31 1   
    36    14    32 1   
    37    15    45 1   
    38    15    46 1   
    39    15    47 1   
    40    16    66 1   
    41    17    18 ar  
    42    17    48 1   
    43    18    49 1   
    44    20    24 1   
    45    20    50 1   
    46    21    51 1   
    47    22    23 ar  
    48    23    52 1   
    49    24    25 1   
    50    24    29 1   
    51    25    26 1   
    52    25    28 2   
    53    26    27 1   
    54    26    53 1   
    55    26    54 1   
    56    27    55 1   
    57    27    56 1   
    58    27    57 1   
    59    29    30 ar  
    60    29    33 ar  
    61    30    58 1   
    62    31    59 1   
    63    31    60 1   
    64    31    61 1   
    65    32    62 1   
    66    32    63 1   
    67    32    64 1   
    68    33    65 1   
@<TRIPOS>SUBSTRUCTURE
     1 USZ         1 TEMP              0 ****  ****    0 ROOT
