@<TRIPOS>MOLECULE
UT0
   46    48     1     0     0
SMALL
bcc


@<TRIPOS>ATOM
      1 CAA          3.3960     4.7410     0.4810 c3         1 UT0      -0.096100
      2 CAB          5.4830    -3.4840    -1.0540 c3         1 UT0      -0.195100
      3 CAC         -4.4230     2.4110     0.3820 c3         1 UT0      -0.257300
      4 CAG          4.9250    -0.6660    -0.4520 ca         1 UT0      -0.084000
      5 CAH          4.6810     0.6800    -0.2140 ca         1 UT0      -0.207000
      6 CAI         -0.0440    -1.1370     1.5080 ca         1 UT0      -0.179000
      7 CAJ         -1.1850    -1.8480     1.8110 ca         1 UT0      -0.052000
      8 CAK         -3.7500    -1.9480     1.3830 cc         1 UT0      -0.139200
      9 CAL         -4.5440    -1.1590     0.6290 cd         1 UT0      -0.108100
     10 CAM          2.5820    -1.1270    -0.1770 ca         1 UT0      -0.107000
     11 CAN         -1.2940     0.3680     0.0660 ca         1 UT0      -0.213000
     12 CAO          4.0610     3.4110     0.2200 c3         1 UT0       0.144400
     13 CAS         -0.0870    -0.0350     0.6300 ca         1 UT0       0.194600
     14 CAT          3.8800    -1.5810    -0.4370 ca         1 UT0      -0.181600
     15 CAU          2.3180     0.2050     0.0860 ca         1 UT0       0.135600
     16 CAV          3.3960     1.1240     0.0570 ca         1 UT0       0.124100
     17 CAW         -2.4070    -1.4570     1.2620 ca         1 UT0      -0.117800
     18 CAX         -2.4370    -0.3470     0.4020 ca         1 UT0       0.005800
     19 NAY         -3.7600    -0.1850     0.0050 na         1 UT0      -0.215900
     20 OAD          3.1660    -3.8100    -0.6570 o          1 UT0      -0.527100
     21 OAE         -5.7540     0.7500    -1.1830 o          1 UT0      -0.590800
     22 OAF         -3.4530     1.4690    -1.8770 o          1 UT0      -0.590800
     23 OAQ          3.0610     2.3990     0.2930 os         1 UT0      -0.333900
     24 SAZ         -4.3990     1.1250    -0.8350 s6         1 UT0       1.256000
     25 H1           4.1430     5.5320     0.4290 hc         1 UT0       0.048700
     26 H2           2.6280     4.9560    -0.2610 hc         1 UT0       0.048700
     27 H3           2.9430     4.7710     1.4720 hc         1 UT0       0.048700
     28 H4           5.8560    -2.9610    -1.9360 hc         1 UT0       0.060033
     29 H5           6.1790    -3.2740    -0.2410 hc         1 UT0       0.060033
     30 H6           5.4890    -4.5540    -1.2500 hc         1 UT0       0.060033
     31 H7          -3.4070     2.6110     0.7150 h1         1 UT0       0.109033
     32 H8          -4.8410     3.2990    -0.0890 h1         1 UT0       0.109033
     33 H9          -5.0460     2.0980     1.2160 h1         1 UT0       0.109033
     34 H10          5.9410    -0.9780    -0.6490 ha         1 UT0       0.133000
     35 H11          5.5110     1.3720    -0.2330 ha         1 UT0       0.137000
     36 H12          0.8940    -1.4200     1.9660 ha         1 UT0       0.146000
     37 H13         -1.1320    -2.6900     2.4890 ha         1 UT0       0.139000
     38 H14         -4.0770    -2.7990     1.9590 ha         1 UT0       0.158000
     39 H15         -5.6060    -1.2050     0.4560 h4         1 UT0       0.189000
     40 H16          1.7690    -1.8400    -0.1940 ha         1 UT0       0.166000
     41 H17         -1.3120     1.2020    -0.6220 ha         1 UT0       0.155000
     42 H18          4.5300     3.4020    -0.7690 h1         1 UT0       0.036700
     43 H19          4.8410     3.2180     0.9630 h1         1 UT0       0.036700
     44 H20          0.8900     1.6510     0.0410 hn         1 UT0       0.444800
     45 NAP          1.0550     0.7090     0.3560 nu         1 UT0      -0.647000
     46 CAR          4.0920    -3.0230    -0.7070 c          1 UT0       0.586700
@<TRIPOS>BOND
     1     1    12 1   
     2     1    25 1   
     3     1    26 1   
     4     1    27 1   
     5     2    28 1   
     6     2    29 1   
     7     2    30 1   
     8     2    46 1   
     9     3    24 1   
    10     3    31 1   
    11     3    32 1   
    12     3    33 1   
    13     4     5 ar  
    14     4    14 ar  
    15     4    34 1   
    16     5    16 ar  
    17     5    35 1   
    18     6     7 ar  
    19     6    13 ar  
    20     6    36 1   
    21     7    17 ar  
    22     7    37 1   
    23     8     9 2   
    24     8    17 1   
    25     8    38 1   
    26     9    19 1   
    27     9    39 1   
    28    10    14 ar  
    29    10    15 ar  
    30    10    40 1   
    31    11    13 ar  
    32    11    18 ar  
    33    11    41 1   
    34    12    23 1   
    35    12    42 1   
    36    12    43 1   
    37    13    45 1   
    38    14    46 1   
    39    15    16 ar  
    40    15    45 1   
    41    16    23 1   
    42    17    18 ar  
    43    18    19 1   
    44    19    24 1   
    45    20    46 2   
    46    21    24 2   
    47    22    24 2   
    48    44    45 1   
@<TRIPOS>SUBSTRUCTURE
     1 UT0         1 TEMP              0 ****  ****    0 ROOT
