@<TRIPOS>MOLECULE
UT0
   46    48     1     0     0
SMALL
No Charge or Current Charge


@<TRIPOS>ATOM
      1 CAA          3.1870     4.7610     0.4640 c3         1 UT0      -0.096100
      2 CAB          5.8390    -3.5350    -0.9520 c3         1 UT0      -0.195100
      3 CAC         -4.3020     2.6960     0.3540 c3         1 UT0      -0.368100
      4 CAG          5.0490    -0.6620    -0.4270 ca         1 UT0      -0.066000
      5 CAH          4.7100     0.6830    -0.2080 ca         1 UT0      -0.189000
      6 CAI         -0.1120    -1.3760     1.3040 ca         1 UT0      -0.161000
      7 CAJ         -1.2990    -2.0240     1.6970 ca         1 UT0      -0.034000
      8 CAK         -3.8460    -1.9140     1.5140 cc         1 UT0      -0.189200
      9 CAL         -4.6870    -1.0190     0.8690 cd         1 UT0      -0.158100
     10 CAM          2.6980    -1.2690    -0.3090 ca         1 UT0      -0.089000
     11 CAN         -1.4060     0.2980     0.0810 ca         1 UT0      -0.195000
     12 CAO          3.9580     3.4540     0.2240 c3         1 UT0       0.167600
     13 CAS         -0.1620    -0.2240     0.4860 ca         1 UT0       0.333000
     14 CAT          4.0470    -1.6570    -0.4870 ca         1 UT0      -0.181600
     15 CAU          2.3450     0.0720    -0.0630 ca         1 UT0       0.274000
     16 CAV          3.3610     1.0620    -0.0310 ca         1 UT0       0.124100
     17 CAW         -2.5130    -1.4850     1.2560 ca         1 UT0      -0.117800
     18 CAX         -2.5840    -0.3650     0.4730 ca         1 UT0       0.005800
     19 NAY         -3.9140    -0.0290     0.1900 na         1 UT0      -0.215900
     20 OAD          3.5000    -3.9650    -0.7840 o          1 UT0      -0.527100
     21 OAE         -5.9630     1.0860    -0.9450 o          1 UT0      -0.520000
     22 OAF         -3.6120     1.5070    -1.8800 o          1 UT0      -0.520000
     23 OAQ          2.9960     2.3870     0.1740 os         1 UT0      -0.357100
     24 SAZ         -4.5220     1.2990    -0.7450 s6         1 UT0       1.225200
     25 H1           3.8810     5.6080     0.5120 hc         1 UT0       0.048700
     26 H2           2.4750     4.9450    -0.3490 hc         1 UT0       0.048700
     27 H3           2.6350     4.7160     1.4110 hc         1 UT0       0.048700
     28 H4           6.2670    -2.9480    -1.7720 hc         1 UT0       0.060033
     29 H5           6.4310    -3.2140    -0.0890 hc         1 UT0       0.060033
     30 H6           5.9460    -4.6110    -1.1310 hc         1 UT0       0.060033
     31 H7          -3.2340     2.7730     0.5810 h1         1 UT0       0.109033
     32 H8          -4.6640     3.5860    -0.1700 h1         1 UT0       0.109033
     33 H9          -4.8880     2.4980     1.2570 h1         1 UT0       0.109033
     34 H10          6.0990    -0.9120    -0.5580 ha         1 UT0       0.115000
     35 H11          5.5100     1.4170    -0.1810 ha         1 UT0       0.119000
     36 H12          0.8410    -1.7560     1.6580 ha         1 UT0       0.128000
     37 H13         -1.2740    -2.9070     2.3320 ha         1 UT0       0.121000
     38 H14         -4.1630    -2.7700     2.1070 ha         1 UT0       0.208000
     39 H15         -5.7760    -1.0120     0.8360 h4         1 UT0       0.239000
     40 H16          1.9120    -2.0150    -0.3820 ha         1 UT0       0.148000
     41 H17         -1.4390     1.1930    -0.5310 ha         1 UT0       0.137000
     42 H18          4.5120     3.5250    -0.7210 h1         1 UT0       0.036700
     43 H19          4.6720     3.2960     1.0430 h1         1 UT0       0.036700
     44 H20          0.8630     1.4530    -0.0290 hn         1 UT0       0.500000
     45 NAP          0.9980     0.4490     0.1030 nu         1 UT0      -0.979000
     46 CAR          4.3820    -3.1160    -0.7430 c          1 UT0       0.586700
@<TRIPOS>BOND
     1     1    12 1   
     2     1    25 1   
     3     1    26 1   
     4     1    27 1   
     5     2    28 1   
     6     2    29 1   
     7     2    30 1   
     8     2    46 1   
     9     3    24 1   
    10     3    31 1   
    11     3    32 1   
    12     3    33 1   
    13     4     5 ar  
    14     4    14 ar  
    15     4    34 1   
    16     5    16 ar  
    17     5    35 1   
    18     6     7 ar  
    19     6    13 ar  
    20     6    36 1   
    21     7    17 ar  
    22     7    37 1   
    23     8     9 2   
    24     8    17 1   
    25     8    38 1   
    26     9    19 1   
    27     9    39 1   
    28    10    14 ar  
    29    10    15 ar  
    30    10    40 1   
    31    11    13 ar  
    32    11    18 ar  
    33    11    41 1   
    34    12    23 1   
    35    12    42 1   
    36    12    43 1   
    37    13    45 1   
    38    14    46 1   
    39    15    16 ar  
    40    15    45 1   
    41    16    23 1   
    42    17    18 ar  
    43    18    19 1   
    44    19    24 1   
    45    20    46 2   
    46    21    24 2   
    47    22    24 2   
    48    44    45 1   
@<TRIPOS>SUBSTRUCTURE
     1 UT0         1 TEMP              0 ****  ****    0 ROOT
