@<TRIPOS>MOLECULE
UT2
   48    50     1     0     0
SMALL
abcg2


@<TRIPOS>ATOM
      1 C1          16.7540   -17.9500   -19.3610 c3         1 UT2       0.148900
      2 C2          14.6830   -17.6770   -20.5250 ca         1 UT2       0.141100
      3 C3          13.3440   -18.0580   -20.6650 ca         1 UT2      -0.156500
      4 C4          12.5500   -17.4680   -21.6310 ca         1 UT2      -0.070500
      5 C10         15.0660    -9.9420   -19.1100 cc         1 UT2      -0.294600
      6 C12         16.2790    -8.1840   -18.2070 cd         1 UT2      -0.046000
      7 C13         15.6670    -8.7190   -17.1000 cc         1 UT2      -0.360200
      8 C16         13.5930   -13.1610   -24.6450 ca         1 UT2       0.224100
      9 C15         14.6500   -12.2510   -24.7160 ca         1 UT2      -0.197000
     10 C5          13.0840   -16.5070   -22.4910 ca         1 UT2       0.212000
     11 C6          12.9290   -13.2990   -23.4130 ca         1 UT2      -0.291500
     12 C11         15.9280    -8.8950   -19.3670 cd         1 UT2      -0.120000
     13 C14         15.0240   -11.5160   -23.6050 ca         1 UT2      -0.068000
     14 C17         13.8760   -13.8230   -26.9230 c3         1 UT2       0.153900
     15 C18         14.4170   -16.1410   -22.3620 ca         1 UT2      -0.070500
     16 O1          15.3830   -18.3020   -19.5420 os         1 UT2      -0.346100
     17 N1          12.2780   -15.9010   -23.5060 nu         1 UT2      -0.905100
     18 S1          11.5800   -14.4300   -23.2210 sy         1 UT2       1.186600
     19 O2          11.1300   -14.3180   -21.8520 o          1 UT2      -0.542500
     20 O3          10.6040   -14.2490   -24.2710 o          1 UT2      -0.542500
     21 C7          13.3060   -12.5630   -22.2970 ca         1 UT2       0.003000
     22 C8          14.3620   -11.6610   -22.3840 ca         1 UT2      -0.091000
     23 N2          14.8020   -10.8700   -21.3080 ns         1 UT2      -0.125000
     24 O4          13.6220   -11.7450   -19.5500 o          1 UT2      -0.572100
     25 S2          14.6660   -10.0740   -17.4400 ss         1 UT2       0.501000
     26 N3          15.7950    -8.2450   -15.7600 no         1 UT2       0.709200
     27 O5          16.5000    -7.2630   -15.5550 o          1 UT2      -0.389000
     28 O6          15.1830    -8.8510   -14.8810 o          1 UT2      -0.389000
     29 C19         15.2180   -16.7100   -21.3770 ca         1 UT2      -0.156500
     30 H1          17.1110   -18.5580   -18.5330 h1         1 UT2       0.043033
     31 H2          17.3370   -18.1730   -20.2580 h1         1 UT2       0.043033
     32 H3          16.8580   -16.8920   -19.1110 h1         1 UT2       0.043033
     33 H4          12.9410   -18.8110   -20.0000 ha         1 UT2       0.126000
     34 H5          11.5080   -17.7500   -21.7250 ha         1 UT2       0.122000
     35 H6          16.9370    -7.3300   -18.1750 ha         1 UT2       0.167000
     36 H7          15.1890   -12.1130   -25.6410 ha         1 UT2       0.123000
     37 H8          16.2950    -8.6320   -20.3490 ha         1 UT2       0.140000
     38 H9          15.8480   -10.8180   -23.6870 ha         1 UT2       0.112000
     39 H10         13.3790   -14.5260   -27.5860 h1         1 UT2       0.050033
     40 H11         13.8060   -12.8140   -27.3330 h1         1 UT2       0.050033
     41 H12         14.9240   -14.1050   -26.8020 h1         1 UT2       0.050033
     42 H13         14.8380   -15.4080   -23.0360 ha         1 UT2       0.122000
     43 H14         11.6190   -16.5110   -23.9770 hn         1 UT2       0.496000
     44 H15         12.7810   -12.7030   -21.3690 ha         1 UT2       0.182000
     45 H16         15.5070   -10.1890   -21.5470 hn         1 UT2       0.154000
     46 H17         16.2510   -16.4050   -21.2960 ha         1 UT2       0.126000
     47 O7          13.1790   -13.9160   -25.6770 os         1 UT2      -0.331100
     48 C9          14.4280   -10.9370   -20.0070 c          1 UT2       0.635700
@<TRIPOS>BOND
     1     1    16 1   
     2     1    30 1   
     3     1    31 1   
     4     1    32 1   
     5     2     3 ar  
     6     2    16 1   
     7     2    29 ar  
     8     3     4 ar  
     9     3    33 1   
    10     4    10 ar  
    11     4    34 1   
    12     5    12 2   
    13     5    25 1   
    14     5    48 1   
    15     6     7 2   
    16     6    12 1   
    17     6    35 1   
    18     7    25 1   
    19     7    26 1   
    20     8     9 ar  
    21     8    11 ar  
    22     8    47 1   
    23     9    13 ar  
    24     9    36 1   
    25    10    15 ar  
    26    10    17 1   
    27    11    18 1   
    28    11    21 ar  
    29    12    37 1   
    30    13    22 ar  
    31    13    38 1   
    32    14    39 1   
    33    14    40 1   
    34    14    41 1   
    35    14    47 1   
    36    15    29 ar  
    37    15    42 1   
    38    17    18 1   
    39    17    43 1   
    40    18    19 2   
    41    18    20 2   
    42    21    22 ar  
    43    21    44 1   
    44    22    23 1   
    45    23    45 1   
    46    23    48 1   
    47    24    48 2   
    48    26    27 1   
    49    26    28 1   
    50    29    46 1   
@<TRIPOS>SUBSTRUCTURE
     1 UT2         1 TEMP              0 ****  ****    0 ROOT
