@<TRIPOS>MOLECULE
UT2
   48    50     1     0     0
SMALL
No Charge or Current Charge


@<TRIPOS>ATOM
      1 C1          16.5190   -18.2290   -19.3470 c3         1 UT2       0.148900
      2 C2          14.9230   -17.8850   -21.1980 ca         1 UT2       0.141100
      3 C3          14.4570   -18.3070   -22.4530 ca         1 UT2      -0.156500
      4 C4          13.3950   -17.6330   -23.0820 ca         1 UT2      -0.070500
      5 C10         15.0710    -9.6130   -19.0620 cc         1 UT2      -0.294600
      6 C12         16.7330    -8.0770   -18.5060 cd         1 UT2      -0.046000
      7 C13         16.0080    -8.0600   -17.3340 cc         1 UT2      -0.360200
      8 C16         13.5190   -13.3530   -24.3150 ca         1 UT2       0.224100
      9 C15         14.6930   -12.5740   -24.3880 ca         1 UT2      -0.197000
     10 C5          12.7850   -16.5240   -22.4680 ca         1 UT2       0.212000
     11 C6          12.7280   -13.2930   -23.1530 ca         1 UT2      -0.291500
     12 C11         16.2060    -8.9560   -19.4890 cd         1 UT2      -0.120000
     13 C14         15.0730   -11.7550   -23.3130 ca         1 UT2      -0.068000
     14 C17         13.9050   -14.3190   -26.5610 c3         1 UT2       0.153900
     15 C18         13.2510   -16.1050   -21.2030 ca         1 UT2      -0.070500
     16 O1          15.9680   -18.5830   -20.6290 os         1 UT2      -0.346100
     17 N1          11.7420   -15.8780   -23.1350 nu         1 UT2      -0.905100
     18 S1          11.2360   -14.2800   -23.0150 sy         1 UT2       1.186600
     19 O2          10.6630   -14.1700   -21.6700 o          1 UT2      -0.542500
     20 O3          10.4160   -14.1250   -24.2180 o          1 UT2      -0.542500
     21 C7          13.1150   -12.4720   -22.0700 ca         1 UT2       0.003000
     22 C8          14.2940   -11.6970   -22.1450 ca         1 UT2      -0.091000
     23 N2          14.7490   -10.8470   -21.0940 ns         1 UT2      -0.125000
     24 O4          13.2690   -11.1200   -19.3400 o          1 UT2      -0.572100
     25 S2          14.6310    -9.1530   -17.4270 ss         1 UT2       0.501000
     26 N3          16.2340    -7.3060   -16.1360 no         1 UT2       0.709200
     27 O5          17.2120    -6.5510   -16.1120 o          1 UT2      -0.389000
     28 O6          15.4440    -7.4520   -15.1970 o          1 UT2      -0.389000
     29 C19         14.3140   -16.7770   -20.5710 ca         1 UT2      -0.156500
     30 H1          17.3380   -18.9100   -19.0850 h1         1 UT2       0.043033
     31 H2          16.9190   -17.2070   -19.3630 h1         1 UT2       0.043033
     32 H3          15.7560   -18.2970   -18.5610 h1         1 UT2       0.043033
     33 H4          14.9210   -19.1610   -22.9400 ha         1 UT2       0.126000
     34 H5          13.0490   -17.9730   -24.0550 ha         1 UT2       0.122000
     35 H6          17.6260    -7.4760   -18.6680 ha         1 UT2       0.167000
     36 H7          15.3290   -12.5920   -25.2680 ha         1 UT2       0.123000
     37 H8          16.6660    -9.0800   -20.4660 ha         1 UT2       0.140000
     38 H9          15.9830   -11.1640   -23.3900 ha         1 UT2       0.112000
     39 H10         13.4200   -15.0290   -27.2410 h1         1 UT2       0.050033
     40 H11         13.9890   -13.3560   -27.0800 h1         1 UT2       0.050033
     41 H12         14.9140   -14.6920   -26.3430 h1         1 UT2       0.050033
     42 H13         12.7950   -15.2600   -20.6970 ha         1 UT2       0.122000
     43 H14         11.6230   -16.0980   -24.1150 hn         1 UT2       0.496000
     44 H15         12.4910   -12.4450   -21.1800 ha         1 UT2       0.182000
     45 H16         15.5860   -10.3300   -21.3230 hn         1 UT2       0.154000
     46 H17         14.6460   -16.4250   -19.5990 ha         1 UT2       0.126000
     47 O7          13.1370   -14.1830   -25.3520 os         1 UT2      -0.331100
     48 C9          14.2660   -10.5920   -19.8160 c          1 UT2       0.635700
@<TRIPOS>BOND
     1     1    16 1   
     2     1    30 1   
     3     1    31 1   
     4     1    32 1   
     5     2     3 ar  
     6     2    16 1   
     7     2    29 ar  
     8     3     4 ar  
     9     3    33 1   
    10     4    10 ar  
    11     4    34 1   
    12     5    12 2   
    13     5    25 1   
    14     5    48 1   
    15     6     7 2   
    16     6    12 1   
    17     6    35 1   
    18     7    25 1   
    19     7    26 1   
    20     8     9 ar  
    21     8    11 ar  
    22     8    47 1   
    23     9    13 ar  
    24     9    36 1   
    25    10    15 ar  
    26    10    17 1   
    27    11    18 1   
    28    11    21 ar  
    29    12    37 1   
    30    13    22 ar  
    31    13    38 1   
    32    14    39 1   
    33    14    40 1   
    34    14    41 1   
    35    14    47 1   
    36    15    29 ar  
    37    15    42 1   
    38    17    18 1   
    39    17    43 1   
    40    18    19 2   
    41    18    20 2   
    42    21    22 ar  
    43    21    44 1   
    44    22    23 1   
    45    23    45 1   
    46    23    48 1   
    47    24    48 2   
    48    26    27 1   
    49    26    28 1   
    50    29    46 1   
@<TRIPOS>SUBSTRUCTURE
     1 UT2         1 TEMP              0 ****  ****    0 ROOT
