@<TRIPOS>MOLECULE
UT4
   44    48     1     0     0
SMALL
No Charge or Current Charge


@<TRIPOS>ATOM
      1 C01         -2.7030     8.5760    -2.9890 c          1 UT4       0.642900
      2 C02         -3.1150     8.5440    -1.6010 cc         1 UT4      -0.495200
      3 C03         -3.7720     7.4590    -1.0790 cd         1 UT4       0.393100
      4 C04         -5.3360     6.4760     0.6400 c6         1 UT4       0.178800
      5 C05         -5.2300     5.9660     2.1120 c6         1 UT4       0.139300
      6 C06         -3.8170     7.8710     2.7270 c6         1 UT4       0.139300
      7 C07         -3.8690     8.4300     1.2690 c6         1 UT4       0.178800
      8 C08         -3.6710     6.3110    -3.2010 cc         1 UT4       0.134100
      9 C09         -3.0330     7.3790    -3.7430 cd         1 UT4      -0.370600
     10 C10         -3.4490     5.4970    -5.3460 cd         1 UT4      -0.230000
     11 C11         -3.9480     5.2300    -4.0850 cc         1 UT4      -0.057000
     12 C12         -4.5610     3.9130    -3.8010 ca         1 UT4      -0.014000
     13 C13         -4.7000     3.4420    -2.4730 ca         1 UT4      -0.092000
     14 C14         -5.2900     2.1950    -2.1980 ca         1 UT4      -0.114000
     15 C15         -5.7550     1.3920    -3.2460 ca         1 UT4       0.062100
     16 C16         -7.0970    -0.4590    -4.0220 c6         1 UT4       0.117600
     17 C17         -6.3200    -0.3440    -5.3510 c6         1 UT4       0.117600
     18 C18         -5.6040     1.8310    -4.5820 ca         1 UT4       0.054100
     19 C19         -5.0230     3.0800    -4.8510 ca         1 UT4      -0.095000
     20 N01         -4.1980     7.3760     0.2530 nh         1 UT4      -0.670400
     21 N02         -5.0220     7.0710     3.0910 n7         1 UT4      -0.841400
     22 O01         -2.1270     9.5350    -3.4780 o          1 UT4      -0.573100
     23 O02         -4.0460     6.3830    -1.8850 os         1 UT4      -0.214200
     24 O03         -6.3520     0.1800    -2.9610 os         1 UT4      -0.329100
     25 O04         -6.0310     1.0430    -5.6340 os         1 UT4      -0.329100
     26 S01         -2.6840     7.1040    -5.4470 ss         1 UT4       0.338000
     27 H1          -2.8840     9.4320    -1.0340 ha         1 UT4       0.208000
     28 H5          -5.3930     5.5980    -0.0180 h1         1 UT4       0.058450
     29 H6          -6.1430     5.4070     2.3670 h1         1 UT4       0.066450
     30 H7          -4.3890     5.2590     2.1780 h1         1 UT4       0.066450
     31 H8          -2.9210     7.2380     2.8260 h1         1 UT4       0.066450
     32 H9          -3.6970     8.7080     3.4310 h1         1 UT4       0.066450
     33 H10         -2.8900     8.8830     1.0600 h1         1 UT4       0.058450
     34 H11         -4.6170     9.2340     1.2190 h1         1 UT4       0.058450
     35 H12         -3.4410     4.8710    -6.2280 h4         1 UT4       0.158000
     36 H13         -4.3330     4.0230    -1.6350 ha         1 UT4       0.125000
     37 H14         -5.3890     1.8550    -1.1700 ha         1 UT4       0.128000
     38 H15         -8.0720     0.0380    -4.1230 h1         1 UT4       0.067700
     39 H16         -7.2710    -1.5130    -3.7620 h1         1 UT4       0.067700
     40 H17         -6.9020    -0.7720    -6.1800 h1         1 UT4       0.068200
     41 H18         -5.3740    -0.8980    -5.2720 h1         1 UT4       0.068200
     42 H19         -4.9550     3.3940    -5.8870 ha         1 UT4       0.130000
     43 H21         -5.8420     7.6910     3.0560 hn         1 UT4       0.408000
     44 H4          -6.2840     7.0200     0.5220 h1         1 UT4       0.058450
@<TRIPOS>BOND
     1     1     2 1   
     2     1     9 1   
     3     1    22 2   
     4     2     3 2   
     5     2    27 1   
     6     3    20 1   
     7     3    23 1   
     8     4     5 1   
     9     4    20 1   
    10     4    28 1   
    11     4    44 1   
    12     5    21 1   
    13     5    29 1   
    14     5    30 1   
    15     6     7 1   
    16     6    21 1   
    17     6    31 1   
    18     6    32 1   
    19     7    20 1   
    20     7    33 1   
    21     7    34 1   
    22     8     9 2   
    23     8    11 1   
    24     8    23 1   
    25     9    26 1   
    26    10    11 2   
    27    10    26 1   
    28    10    35 1   
    29    11    12 1   
    30    12    13 ar  
    31    12    19 ar  
    32    13    14 ar  
    33    13    36 1   
    34    14    15 ar  
    35    14    37 1   
    36    15    18 ar  
    37    15    24 1   
    38    16    17 1   
    39    16    24 1   
    40    16    38 1   
    41    16    39 1   
    42    17    25 1   
    43    17    40 1   
    44    17    41 1   
    45    18    19 ar  
    46    18    25 1   
    47    19    42 1   
    48    21    43 1   
@<TRIPOS>SUBSTRUCTURE
     1 UT4         1 TEMP              0 ****  ****    0 ROOT
