@<TRIPOS>MOLECULE
UT4
   44    48     1     0     0
SMALL
abcg2


@<TRIPOS>ATOM
      1 C01         -2.6750     8.6070    -2.9750 c          1 UT4       0.642900
      2 C02         -3.2410     8.5380    -1.6590 cc         1 UT4      -0.495200
      3 C03         -3.8260     7.3960    -1.1620 cd         1 UT4       0.393100
      4 C04         -5.3110     6.1840     0.3710 c6         1 UT4       0.178800
      5 C05         -5.1740     5.7060     1.8100 c6         1 UT4       0.139300
      6 C06         -4.2060     7.7770     2.4610 c6         1 UT4       0.139300
      7 C07         -4.2910     8.3120     1.0350 c6         1 UT4       0.178800
      8 C08         -3.4510     6.2800    -3.1650 cc         1 UT4       0.134100
      9 C09         -2.8230     7.3620    -3.7040 cd         1 UT4      -0.370600
     10 C10         -2.9930     5.4580    -5.2340 cd         1 UT4      -0.230000
     11 C11         -3.5670     5.1560    -4.0300 cc         1 UT4      -0.057000
     12 C12         -4.2290     3.8880    -3.6960 ca         1 UT4      -0.014000
     13 C13         -4.0160     3.2590    -2.4690 ca         1 UT4      -0.092000
     14 C14         -4.6490     2.0630    -2.1750 ca         1 UT4      -0.114000
     15 C15         -5.4970     1.4650    -3.0980 ca         1 UT4       0.062100
     16 C16         -7.1880    -0.0550    -3.6120 c6         1 UT4       0.117600
     17 C17         -6.8200     0.1680    -5.0580 c6         1 UT4       0.117600
     18 C18         -5.7000     2.0790    -4.3390 ca         1 UT4       0.054100
     19 C19         -5.0720     3.2820    -4.6240 ca         1 UT4      -0.095000
     20 N01         -4.3140     7.2160     0.0780 nh         1 UT4      -0.670400
     21 N02         -5.1990     6.7750     2.7880 n7         1 UT4      -0.841400
     22 O01         -2.1380     9.6010    -3.4660 o          1 UT4      -0.573100
     23 O02         -3.9450     6.2890    -1.9170 os         1 UT4      -0.214200
     24 O03         -6.1030     0.3030    -2.7680 os         1 UT4      -0.329100
     25 O04         -6.5070     1.5360    -5.2790 os         1 UT4      -0.329100
     26 S01         -2.3400     7.0410    -5.3170 ss         1 UT4       0.338000
     27 H1          -3.2120     9.4300    -1.0530 ha         1 UT4       0.208000
     28 H5          -5.1960     5.3370    -0.3000 h1         1 UT4       0.058450
     29 H6          -5.9790     5.0000     2.0180 h1         1 UT4       0.066450
     30 H7          -4.2320     5.1590     1.9150 h1         1 UT4       0.066450
     31 H8          -3.2130     7.3420     2.6130 h1         1 UT4       0.066450
     32 H9          -4.2940     8.6180     3.1500 h1         1 UT4       0.066450
     33 H10         -3.4210     8.9420     0.8590 h1         1 UT4       0.058450
     34 H11         -5.1840     8.9370     0.9120 h1         1 UT4       0.058450
     35 H12         -2.9080     4.8000    -6.0860 h4         1 UT4       0.158000
     36 H13         -3.3450     3.6880    -1.7380 ha         1 UT4       0.125000
     37 H14         -4.4860     1.5810    -1.2200 ha         1 UT4       0.128000
     38 H15         -8.0760     0.5270    -3.3470 h1         1 UT4       0.067700
     39 H16         -7.4010    -1.1080    -3.4320 h1         1 UT4       0.067700
     40 H17         -7.6590    -0.0790    -5.7060 h1         1 UT4       0.068200
     41 H18         -5.9690    -0.4620    -5.3390 h1         1 UT4       0.068200
     42 H19         -5.2630     3.7510    -5.5820 ha         1 UT4       0.130000
     43 H21         -6.1200     7.2010     2.8020 hn         1 UT4       0.408000
     44 H4          -6.3150     6.5970     0.2090 h1         1 UT4       0.058450
@<TRIPOS>BOND
     1     1     2 1   
     2     1     9 1   
     3     1    22 2   
     4     2     3 2   
     5     2    27 1   
     6     3    20 1   
     7     3    23 1   
     8     4     5 1   
     9     4    20 1   
    10     4    28 1   
    11     4    44 1   
    12     5    21 1   
    13     5    29 1   
    14     5    30 1   
    15     6     7 1   
    16     6    21 1   
    17     6    31 1   
    18     6    32 1   
    19     7    20 1   
    20     7    33 1   
    21     7    34 1   
    22     8     9 2   
    23     8    11 1   
    24     8    23 1   
    25     9    26 1   
    26    10    11 2   
    27    10    26 1   
    28    10    35 1   
    29    11    12 1   
    30    12    13 ar  
    31    12    19 ar  
    32    13    14 ar  
    33    13    36 1   
    34    14    15 ar  
    35    14    37 1   
    36    15    18 ar  
    37    15    24 1   
    38    16    17 1   
    39    16    24 1   
    40    16    38 1   
    41    16    39 1   
    42    17    25 1   
    43    17    40 1   
    44    17    41 1   
    45    18    19 ar  
    46    18    25 1   
    47    19    42 1   
    48    21    43 1   
@<TRIPOS>SUBSTRUCTURE
     1 UT4         1 TEMP              0 ****  ****    0 ROOT
