@<TRIPOS>MOLECULE
UT5
   48    51     1     0     0
SMALL
bcc


@<TRIPOS>ATOM
      1 C1         -47.3740   -42.1900    -4.2030 c          1 UT5       0.665100
      2 C2         -45.6910   -42.2780    -2.4130 c5         1 UT5       0.112700
      3 C3         -45.4010   -41.5060    -1.1270 c5         1 UT5      -0.097400
      4 C7         -42.4270   -40.5640    -3.0630 cc         1 UT5       0.432800
      5 C8         -40.5430   -39.4310    -3.1420 ca         1 UT5      -0.168500
      6 C9         -39.4830   -38.5320    -3.1940 cp         1 UT5       0.019000
      7 C10        -38.2370   -39.1360    -3.3450 ca         1 UT5      -0.234300
      8 C11        -38.1110   -40.5240    -3.4280 ca         1 UT5       0.386200
      9 C12        -40.3220   -40.8190    -3.2370 ca         1 UT5       0.530300
     10 C13        -39.6220   -37.0660    -3.1460 cp         1 UT5      -0.097000
     11 C14        -39.0150   -36.2810    -4.1200 ca         1 UT5      -0.052000
     12 C15        -39.0960   -34.8960    -4.1060 ca         1 UT5      -0.208000
     13 C16        -39.8000   -34.3110    -3.0760 ca         1 UT5       0.182900
     14 C19        -41.5750   -36.6560    -0.0990 c3         1 UT5       0.121700
     15 F          -39.8980   -32.9750    -3.0320 f          1 UT5      -0.138900
     16 C17        -40.4160   -35.0390    -2.0750 ca         1 UT5      -0.269000
     17 C18        -40.3230   -36.4280    -2.1070 ca         1 UT5       0.175100
     18 O1         -40.8560   -37.2280    -1.1750 os         1 UT5      -0.314900
     19 N2         -39.1270   -41.3750    -3.3770 nb         1 UT5      -0.601000
     20 N1         -41.8990   -39.3100    -3.0440 na         1 UT5      -0.252300
     21 N3         -41.5140   -41.4910    -3.1800 nd         1 UT5      -0.635700
     22 C5         -43.8940   -40.7740    -2.9330 c5         1 UT5      -0.088000
     23 C4         -44.4380   -40.3740    -1.5300 c5         1 UT5      -0.081400
     24 C6         -44.3460   -42.2200    -3.1370 c5         1 UT5      -0.079400
     25 N          -46.7480   -41.6190    -3.1600 ns         1 UT5      -0.580900
     26 O          -47.0940   -43.3100    -4.6090 o          1 UT5      -0.603100
     27 C          -48.4680   -41.3660    -4.8360 c3         1 UT5      -0.180100
     28 H1         -45.9940   -43.3060    -2.2090 h1         1 UT5       0.082700
     29 H2         -46.3070   -41.1440    -0.6380 hc         1 UT5       0.056200
     30 H3         -44.9120   -42.1830    -0.4260 hc         1 UT5       0.056200
     31 H4         -37.3440   -38.5260    -3.3850 ha         1 UT5       0.141000
     32 H5         -37.1230   -40.9560    -3.5390 h4         1 UT5       0.022100
     33 H6         -38.4750   -36.7680    -4.9210 ha         1 UT5       0.146000
     34 H7         -38.6270   -34.2980    -4.8750 ha         1 UT5       0.158000
     35 H8         -41.9140   -37.4860     0.5160 h1         1 UT5       0.046033
     36 H9         -40.9440   -36.0020     0.5070 h1         1 UT5       0.046033
     37 H10        -42.4450   -36.0930    -0.4450 h1         1 UT5       0.046033
     38 H11        -40.9450   -34.5160    -1.2890 ha         1 UT5       0.156000
     39 H12        -42.4270   -38.4550    -2.9560 hn         1 UT5       0.308700
     40 H14        -44.3810   -40.1430    -3.6830 hc         1 UT5       0.058700
     41 H15        -43.6350   -40.2710    -0.8000 hc         1 UT5       0.045200
     42 H16        -44.9420   -39.4090    -1.5790 hc         1 UT5       0.045200
     43 H17        -43.6540   -42.9090    -2.6480 hc         1 UT5       0.080200
     44 H18        -44.4080   -42.5040    -4.1860 hc         1 UT5       0.080200
     45 H19        -47.0410   -40.7000    -2.8680 hn         1 UT5       0.309500
     46 H20        -48.2870   -41.2820    -5.9070 hc         1 UT5       0.058700
     47 H21        -49.4240   -41.8760    -4.7090 hc         1 UT5       0.058700
     48 H22        -48.5570   -40.3640    -4.4210 hc         1 UT5       0.058700
@<TRIPOS>BOND
     1     1    25 1   
     2     1    26 2   
     3     1    27 1   
     4     2     3 1   
     5     2    24 1   
     6     2    25 1   
     7     2    28 1   
     8     3    23 1   
     9     3    29 1   
    10     3    30 1   
    11     4    20 1   
    12     4    21 2   
    13     4    22 1   
    14     5     6 ar  
    15     5     9 ar  
    16     5    20 1   
    17     6     7 ar  
    18     6    10 1   
    19     7     8 ar  
    20     7    31 1   
    21     8    19 ar  
    22     8    32 1   
    23     9    19 ar  
    24     9    21 1   
    25    10    11 ar  
    26    10    17 ar  
    27    11    12 ar  
    28    11    33 1   
    29    12    13 ar  
    30    12    34 1   
    31    13    15 1   
    32    13    16 ar  
    33    14    18 1   
    34    14    35 1   
    35    14    36 1   
    36    14    37 1   
    37    16    17 ar  
    38    16    38 1   
    39    17    18 1   
    40    20    39 1   
    41    22    23 1   
    42    22    24 1   
    43    22    40 1   
    44    23    41 1   
    45    23    42 1   
    46    24    43 1   
    47    24    44 1   
    48    25    45 1   
    49    27    46 1   
    50    27    47 1   
    51    27    48 1   
@<TRIPOS>SUBSTRUCTURE
     1 UT5         1 TEMP              0 ****  ****    0 ROOT
