@<TRIPOS>MOLECULE
UT5
   48    51     1     0     0
SMALL
No Charge or Current Charge


@<TRIPOS>ATOM
      1 C1         -47.4200   -42.7270    -3.8650 c          1 UT5       0.598100
      2 C2         -45.8780   -41.7770    -2.2100 c5         1 UT5       0.112700
      3 C3         -45.8350   -40.3780    -1.5040 c5         1 UT5      -0.097400
      4 C7         -42.4550   -40.4050    -3.2410 cc         1 UT5       0.432800
      5 C8         -40.4850   -39.4830    -3.3920 ca         1 UT5      -0.103200
      6 C9         -39.4370   -38.5470    -3.3890 cp         1 UT5       0.019000
      7 C10        -38.1960   -39.1310    -3.7480 ca         1 UT5      -0.151000
      8 C11        -38.1170   -40.5170    -4.0370 ca         1 UT5       0.320900
      9 C12        -40.3670   -40.8070    -3.6850 ca         1 UT5       0.465000
     10 C13        -39.5860   -37.0880    -3.0920 cp         1 UT5      -0.097000
     11 C14        -39.0930   -36.1410    -4.0230 ca         1 UT5      -0.034000
     12 C15        -39.2140   -34.7630    -3.7840 ca         1 UT5      -0.190000
     13 C16        -39.8240   -34.3090    -2.6080 ca         1 UT5       0.218000
     14 C19        -41.2590   -37.1770     0.2570 c3         1 UT5       0.144900
     15 F          -39.9380   -32.9830    -2.3810 f          1 UT5      -0.174000
     16 C17        -40.3100   -35.2190    -1.6620 ca         1 UT5      -0.251000
     17 C18        -40.1890   -36.6040    -1.8970 ca         1 UT5       0.175100
     18 O1         -40.6230   -37.5420    -0.9790 os         1 UT5      -0.338100
     19 N2         -39.1870   -41.3580    -4.0080 nb         1 UT5      -0.601000
     20 N1         -41.7830   -39.1930    -3.1320 na         1 UT5      -0.302600
     21 N3         -41.6180   -41.4090    -3.5910 nd         1 UT5      -0.635700
     22 C5         -43.9490   -40.4890    -2.9890 c5         1 UT5      -0.088000
     23 C4         -44.3370   -39.9710    -1.5770 c5         1 UT5      -0.081400
     24 C6         -44.4740   -41.9520    -2.8750 c5         1 UT5      -0.079400
     25 N          -46.8190   -41.6070    -3.3280 ns         1 UT5      -0.513900
     26 O          -47.2190   -43.8620    -3.4560 o          1 UT5      -0.603100
     27 C          -48.3650   -42.4360    -5.0230 c3         1 UT5      -0.180100
     28 H1         -46.1370   -42.5990    -1.5260 h1         1 UT5       0.082700
     29 H2         -46.4630   -39.6260    -1.9990 hc         1 UT5       0.056200
     30 H3         -46.1850   -40.4380    -0.4680 hc         1 UT5       0.056200
     31 H4         -37.2970   -38.5230    -3.7940 ha         1 UT5       0.123000
     32 H5         -37.1620   -40.9670    -4.3050 h4         1 UT5       0.022100
     33 H6         -38.6220   -36.4840    -4.9420 ha         1 UT5       0.128000
     34 H7         -38.8370   -34.0460    -4.5090 ha         1 UT5       0.140000
     35 H8         -41.5280   -38.0760     0.8250 h1         1 UT5       0.046033
     36 H9         -40.5880   -36.5710     0.8780 h1         1 UT5       0.046033
     37 H10        -42.1780   -36.6070     0.0700 h1         1 UT5       0.046033
     38 H11        -40.7670   -34.8320    -0.7570 ha         1 UT5       0.138000
     39 H12        -42.1770   -38.3030    -2.8590 hn         1 UT5       0.359000
     40 H14        -44.4850   -39.9390    -3.7730 hc         1 UT5       0.058700
     41 H15        -43.7480   -40.4540    -0.7870 hc         1 UT5       0.045200
     42 H16        -44.2000   -38.8880    -1.4690 hc         1 UT5       0.045200
     43 H17        -43.8280   -42.5520    -2.2240 hc         1 UT5       0.080200
     44 H18        -44.5060   -42.4690    -3.8410 hc         1 UT5       0.080200
     45 H19        -47.0520   -40.7110    -3.7390 hn         1 UT5       0.309500
     46 H20        -47.8230   -41.8780    -5.7940 hc         1 UT5       0.058700
     47 H21        -48.8280   -43.3430    -5.4290 hc         1 UT5       0.058700
     48 H22        -49.1180   -41.7100    -4.6960 hc         1 UT5       0.058700
@<TRIPOS>BOND
     1     1    25 1   
     2     1    26 2   
     3     1    27 1   
     4     2     3 1   
     5     2    24 1   
     6     2    25 1   
     7     2    28 1   
     8     3    23 1   
     9     3    29 1   
    10     3    30 1   
    11     4    20 1   
    12     4    21 2   
    13     4    22 1   
    14     5     6 ar  
    15     5     9 ar  
    16     5    20 1   
    17     6     7 ar  
    18     6    10 1   
    19     7     8 ar  
    20     7    31 1   
    21     8    19 ar  
    22     8    32 1   
    23     9    19 ar  
    24     9    21 1   
    25    10    11 ar  
    26    10    17 ar  
    27    11    12 ar  
    28    11    33 1   
    29    12    13 ar  
    30    12    34 1   
    31    13    15 1   
    32    13    16 ar  
    33    14    18 1   
    34    14    35 1   
    35    14    36 1   
    36    14    37 1   
    37    16    17 ar  
    38    16    38 1   
    39    17    18 1   
    40    20    39 1   
    41    22    23 1   
    42    22    24 1   
    43    22    40 1   
    44    23    41 1   
    45    23    42 1   
    46    24    43 1   
    47    24    44 1   
    48    25    45 1   
    49    27    46 1   
    50    27    47 1   
    51    27    48 1   
@<TRIPOS>SUBSTRUCTURE
     1 UT5         1 TEMP              0 ****  ****    0 ROOT
