@<TRIPOS>MOLECULE
UT8
   38    40     1     0     0
SMALL
abcg2


@<TRIPOS>ATOM
      1 C01         12.2450    18.4980     2.2210 c3         1 UT8       0.145900
      2 C03         13.2120    19.9690     0.6320 ca         1 UT8       0.182100
      3 C04         13.0840    21.1310    -0.1390 ca         1 UT8      -0.175000
      4 C05         14.1190    21.5280    -0.9550 ca         1 UT8      -0.019000
      5 C06         15.3200    20.8180    -1.0000 ca         1 UT8       0.095000
      6 C10         17.8800    22.4330     0.1740 ca         1 UT8      -0.276500
      7 C11         19.2380    22.1810     0.3000 ca         1 UT8      -0.028000
      8 C12         19.7620    21.9760     1.5670 ca         1 UT8      -0.083000
      9 C13         18.9360    22.0210     2.6850 ca         1 UT8      -0.148600
     10 C14         17.5750    22.2830     2.5410 ca         1 UT8      -0.083000
     11 C15         17.0400    22.4960     1.2840 ca         1 UT8      -0.028000
     12 C16         19.5310    21.7970     4.0190 c          1 UT8       0.577500
     13 C19         17.2150    20.0820    -2.2680 c6         1 UT8       0.154800
     14 C20         17.6120    19.2140    -1.0940 c6         1 UT8       0.127600
     15 C22         15.4220    19.6340    -0.2680 ca         1 UT8       0.168100
     16 C23         14.3710    19.2130     0.5480 ca         1 UT8      -0.237000
     17 N07         16.4040    21.2170    -1.8290 nh         1 UT8      -0.699300
     18 O02         12.1640    19.6540     1.4090 os         1 UT8      -0.334100
     19 O09         18.2630    22.7990    -2.3990 o          1 UT8      -0.527000
     20 O18         16.1590    23.6710    -1.3390 o          1 UT8      -0.527000
     21 O21         16.4870    18.8160    -0.3230 os         1 UT8      -0.334100
     22 S08         17.1820    22.6490    -1.4430 sy         1 UT8       1.141600
     23 H1          11.3160    18.4520     2.7850 h1         1 UT8       0.045033
     24 H2          12.3390    17.5870     1.6240 h1         1 UT8       0.045033
     25 H3          13.0820    18.5500     2.9210 h1         1 UT8       0.045033
     26 H4          12.1660    21.7030    -0.1030 ha         1 UT8       0.139000
     27 H5          14.0030    22.4090    -1.5680 ha         1 UT8       0.149000
     28 H6          19.8830    22.1420    -0.5670 ha         1 UT8       0.142000
     29 H7          20.8210    21.7810     1.6840 ha         1 UT8       0.129500
     30 H8          16.9320    22.3250     3.4100 ha         1 UT8       0.129500
     31 H9          15.9870    22.7170     1.1790 ha         1 UT8       0.142000
     32 H10         20.6150    21.5900     4.0090 h4         1 UT8      -0.004800
     33 H13         16.6120    19.5190    -2.9820 h1         1 UT8       0.090700
     34 H14         18.1030    20.4220    -2.7960 h1         1 UT8       0.090700
     35 H15         18.0900    18.2990    -1.4460 h1         1 UT8       0.064700
     36 H16         18.3250    19.7320    -0.4480 h1         1 UT8       0.064700
     37 H17         14.4980    18.2910     1.1010 ha         1 UT8       0.136000
     38 O1          18.9080    21.8320     5.0520 o          1 UT8      -0.501100
@<TRIPOS>BOND
     1     1    18 1   
     2     1    23 1   
     3     1    24 1   
     4     1    25 1   
     5     2     3 ar  
     6     2    16 ar  
     7     2    18 1   
     8     3     4 ar  
     9     3    26 1   
    10     4     5 ar  
    11     4    27 1   
    12     5    15 ar  
    13     5    17 1   
    14     6     7 ar  
    15     6    11 ar  
    16     6    22 1   
    17     7     8 ar  
    18     7    28 1   
    19     8     9 ar  
    20     8    29 1   
    21     9    10 ar  
    22     9    12 1   
    23    10    11 ar  
    24    10    30 1   
    25    11    31 1   
    26    12    32 1   
    27    12    38 2   
    28    13    14 1   
    29    13    17 1   
    30    13    33 1   
    31    13    34 1   
    32    14    21 1   
    33    14    35 1   
    34    14    36 1   
    35    15    16 ar  
    36    15    21 1   
    37    16    37 1   
    38    17    22 1   
    39    19    22 2   
    40    20    22 2   
@<TRIPOS>SUBSTRUCTURE
     1 UT8         1 TEMP              0 ****  ****    0 ROOT
