@<TRIPOS>MOLECULE
UT8
   38    40     1     0     0
SMALL
No Charge or Current Charge


@<TRIPOS>ATOM
      1 C01         12.0200    18.3990     2.2110 c3         1 UT8       0.145900
      2 C03         13.1280    19.9610     0.6550 ca         1 UT8       0.182100
      3 C04         13.0540    21.1570    -0.0700 ca         1 UT8      -0.175000
      4 C05         14.1240    21.5710    -0.8830 ca         1 UT8      -0.019000
      5 C06         15.3100    20.8070    -0.9650 ca         1 UT8       0.095000
      6 C10         17.8860    22.4750     0.0750 ca         1 UT8      -0.276500
      7 C11         19.2690    22.2220     0.1990 ca         1 UT8      -0.028000
      8 C12         19.8350    22.0020     1.4660 ca         1 UT8      -0.083000
      9 C13         19.0320    22.0350     2.6250 ca         1 UT8      -0.148600
     10 C14         17.6500    22.2960     2.4980 ca         1 UT8      -0.083000
     11 C15         17.0810    22.5170     1.2320 ca         1 UT8      -0.028000
     12 C16         19.6550    21.7960     3.9760 c          1 UT8       0.577500
     13 C19         17.3650    20.1200    -2.1780 c6         1 UT8       0.154800
     14 C20         17.6530    19.2010    -0.9630 c6         1 UT8       0.127600
     15 C22         15.3550    19.5730    -0.2520 ca         1 UT8       0.168100
     16 C23         14.2800    19.1600     0.5500 ca         1 UT8      -0.237000
     17 N07         16.4030    21.1980    -1.7970 nh         1 UT8      -0.699300
     18 O02         12.0440    19.6080     1.4310 os         1 UT8      -0.334100
     19 O09         18.2090    22.8940    -2.5490 o          1 UT8      -0.527000
     20 O18         16.0810    23.7400    -1.4190 o          1 UT8      -0.527000
     21 O21         16.4340    18.7160    -0.3610 os         1 UT8      -0.334100
     22 S08         17.1450    22.7390    -1.5490 sy         1 UT8       1.141600
     23 H1          11.0700    18.3170     2.7550 h1         1 UT8       0.045033
     24 H2          12.1200    17.5170     1.5670 h1         1 UT8       0.045033
     25 H3          12.8340    18.3940     2.9470 h1         1 UT8       0.045033
     26 H4          12.1540    21.7630    -0.0130 ha         1 UT8       0.139000
     27 H5          14.0090    22.4770    -1.4680 ha         1 UT8       0.149000
     28 H6          19.9090    22.1890    -0.6820 ha         1 UT8       0.142000
     29 H7          20.9030    21.8050     1.5450 ha         1 UT8       0.129500
     30 H8          17.0120    22.3270     3.3790 ha         1 UT8       0.129500
     31 H9          16.0130    22.7150     1.1550 ha         1 UT8       0.142000
     32 H10         20.7500    21.6000     3.9770 h4         1 UT8      -0.004800
     33 H13         16.9330    19.5090    -2.9850 h1         1 UT8       0.090700
     34 H14         18.3220    20.5010    -2.5600 h1         1 UT8       0.090700
     35 H15         18.2700    18.3450    -1.2670 h1         1 UT8       0.064700
     36 H16         18.2110    19.7620    -0.2020 h1         1 UT8       0.064700
     37 H17         14.3600    18.2140     1.0740 ha         1 UT8       0.136000
     38 O1          19.0210    21.8100     5.0270 o          1 UT8      -0.501100
@<TRIPOS>BOND
     1     1    18 1   
     2     1    23 1   
     3     1    24 1   
     4     1    25 1   
     5     2     3 ar  
     6     2    16 ar  
     7     2    18 1   
     8     3     4 ar  
     9     3    26 1   
    10     4     5 ar  
    11     4    27 1   
    12     5    15 ar  
    13     5    17 1   
    14     6     7 ar  
    15     6    11 ar  
    16     6    22 1   
    17     7     8 ar  
    18     7    28 1   
    19     8     9 ar  
    20     8    29 1   
    21     9    10 ar  
    22     9    12 1   
    23    10    11 ar  
    24    10    30 1   
    25    11    31 1   
    26    12    32 1   
    27    12    38 2   
    28    13    14 1   
    29    13    17 1   
    30    13    33 1   
    31    13    34 1   
    32    14    21 1   
    33    14    35 1   
    34    14    36 1   
    35    15    16 ar  
    36    15    21 1   
    37    16    37 1   
    38    17    22 1   
    39    19    22 2   
    40    20    22 2   
@<TRIPOS>SUBSTRUCTURE
     1 UT8         1 TEMP              0 ****  ****    0 ROOT
