@<TRIPOS>MOLECULE
UTB
   54    59     1     0     0
SMALL
abcg2


@<TRIPOS>ATOM
      1 C4          -2.6480     9.8330     3.2840 c          1 UTB       0.598200
      2 C5          -1.2400     9.5400     3.5120 cc         1 UTB      -0.118900
      3 C2          -1.9220    11.8560     2.0470 c          1 UTB       0.622000
      4 N1          -0.6060    11.4950     2.2880 n          1 UTB      -0.313000
      5 C9           0.2780    15.9180     1.9860 c3         1 UTB       0.167600
      6 C8           0.8240    14.5890     1.5070 c5         1 UTB       0.087300
      7 O4           0.4480    13.5730     2.4260 os         1 UTB      -0.454000
      8 C3           0.3270    14.0980     0.1420 c5         1 UTB       0.146300
      9 C10          0.4950    12.5890     0.2720 c5         1 UTB      -0.115400
     10 O3           1.0830    14.5930    -0.9320 oh         1 UTB      -0.712000
     11 C1           0.4870    12.3310     1.7850 c5         1 UTB       0.348700
     12 C6          -0.3070    10.3830     3.0070 cd         1 UTB       0.018600
     13 C7          -0.8930     8.3920     4.2560 cg         1 UTB      -0.131300
     14 O1          -3.5770     9.1590     3.6730 o          1 UTB      -0.505000
     15 N3          -2.8550    10.9920     2.5610 ns         1 UTB      -0.470500
     16 O2          -2.2350    12.8470     1.4290 o          1 UTB      -0.545000
     17 C11         -0.6220     7.4070     4.9010 ch         1 UTB      -0.080000
     18 C12         -0.3410     6.2410     5.6570 ca         1 UTB       0.038000
     19 C13          0.9730     5.9340     6.0660 ca         1 UTB      -0.010000
     20 C14         -1.3940     5.3860     6.0000 ca         1 UTB      -0.080000
     21 C15         -1.1700     4.2430     6.7390 ca         1 UTB      -0.098000
     22 C16          1.1980     4.7580     6.8240 ca         1 UTB      -0.019000
     23 C17          0.1180     3.9070     7.1630 ca         1 UTB      -0.024000
     24 C18          2.0900     6.7680     5.7450 ca         1 UTB      -0.095000
     25 C19          3.3410     6.4520     6.1490 ca         1 UTB      -0.093000
     26 C20          2.5130     4.4290     7.2490 ca         1 UTB      -0.014000
     27 C21          3.6000     5.2720     6.9160 ca         1 UTB      -0.035000
     28 C22          4.8850     4.9310     7.3420 ca         1 UTB      -0.092000
     29 C23          5.0990     3.7810     8.0860 ca         1 UTB      -0.107000
     30 C24          2.7410     3.2560     8.0100 ca         1 UTB      -0.035000
     31 C25          4.0400     2.9500     8.4180 ca         1 UTB      -0.091000
     32 C26          1.6270     2.4170     8.3370 ca         1 UTB      -0.091000
     33 C27          0.3750     2.7290     7.9310 ca         1 UTB      -0.098000
     34 HO5         -1.4480    15.2620     2.5670 ho         1 UTB       0.522000
     35 H5           0.6240    16.6910     1.2960 h1         1 UTB       0.050700
     36 H5'          0.7190    16.1500     2.9650 h1         1 UTB       0.050700
     37 H4           1.9210    14.6740     1.4630 h1         1 UTB       0.059700
     38 H3          -0.7310    14.3480     0.0250 h1         1 UTB       0.084700
     39 H2'         -0.2570    12.0160    -0.2670 hc         1 UTB       0.079200
     40 H2           1.4710    12.3000    -0.1240 hc         1 UTB       0.079200
     41 H1           0.7800    15.4840    -1.1330 ho         1 UTB       0.516000
     42 H8           1.3920    11.7890     2.0700 h2         1 UTB       0.061700
     43 H6           0.7460    10.1910     3.1600 h4         1 UTB       0.212000
     44 H7          -3.8190    11.2490     2.3820 hn         1 UTB       0.346500
     45 H19         -2.3970     5.6330     5.6800 ha         1 UTB       0.129000
     46 H20         -2.0000     3.5970     6.9950 ha         1 UTB       0.119000
     47 H12          1.9210     7.6660     5.1650 ha         1 UTB       0.116000
     48 H13          4.1730     7.0970     5.8940 ha         1 UTB       0.113000
     49 H14          5.7170     5.5760     7.0860 ha         1 UTB       0.114000
     50 H15          6.1010     3.5300     8.4090 ha         1 UTB       0.115000
     51 H16          4.2160     2.0540     9.0000 ha         1 UTB       0.115000
     52 H17          1.8080     1.5220     8.9200 ha         1 UTB       0.115000
     53 H18         -0.4580     2.0850     8.1850 ha         1 UTB       0.116000
     54 O5          -1.1250    15.9830     2.0170 oh         1 UTB      -0.713000
@<TRIPOS>BOND
     1     1     2 1   
     2     1    14 2   
     3     1    15 1   
     4     2    12 2   
     5     2    13 1   
     6     3     4 1   
     7     3    15 1   
     8     3    16 2   
     9     4    11 1   
    10     4    12 1   
    11     5     6 1   
    12     5    35 1   
    13     5    36 1   
    14     5    54 1   
    15     6     7 1   
    16     6     8 1   
    17     6    37 1   
    18     7    11 1   
    19     8     9 1   
    20     8    10 1   
    21     8    38 1   
    22     9    11 1   
    23     9    39 1   
    24     9    40 1   
    25    10    41 1   
    26    11    42 1   
    27    12    43 1   
    28    13    17 3   
    29    15    44 1   
    30    17    18 1   
    31    18    19 ar  
    32    18    20 ar  
    33    19    22 ar  
    34    19    24 ar  
    35    20    21 ar  
    36    20    45 1   
    37    21    23 ar  
    38    21    46 1   
    39    22    23 ar  
    40    22    26 ar  
    41    23    33 ar  
    42    24    25 ar  
    43    24    47 1   
    44    25    27 ar  
    45    25    48 1   
    46    26    27 ar  
    47    26    30 ar  
    48    27    28 ar  
    49    28    29 ar  
    50    28    49 1   
    51    29    31 ar  
    52    29    50 1   
    53    30    31 ar  
    54    30    32 ar  
    55    31    51 1   
    56    32    33 ar  
    57    32    52 1   
    58    33    53 1   
    59    34    54 1   
@<TRIPOS>SUBSTRUCTURE
     1 UTB         1 TEMP              0 ****  ****    0 ROOT
