@<TRIPOS>MOLECULE
UTB
   54    59     1     0     0
SMALL
No Charge or Current Charge


@<TRIPOS>ATOM
      1 C4          -2.6740    10.2190     3.6490 c          1 UTB       0.598200
      2 C5          -1.2610     9.8340     3.8850 cc         1 UTB      -0.118900
      3 C2          -1.8620    12.2970     2.6320 c          1 UTB       0.622000
      4 N1          -0.5230    11.9020     2.8790 n          1 UTB      -0.313000
      5 C9          -0.1330    16.0060     0.9510 c3         1 UTB       0.167600
      6 C8           0.6950    14.7260     1.2350 c5         1 UTB       0.087300
      7 O4           0.3020    14.1800     2.5120 os         1 UTB      -0.454000
      8 C3           0.5010    13.5420     0.2360 c5         1 UTB       0.146300
      9 C10          1.0930    12.3940     1.0890 c5         1 UTB      -0.115400
     10 O3           1.2210    13.7080    -0.9910 oh         1 UTB      -0.712000
     11 C1           0.6340    12.7780     2.5280 c5         1 UTB       0.348700
     12 C6          -0.2450    10.6790     3.4980 cd         1 UTB       0.018600
     13 C7          -0.9980     8.5840     4.5160 cg         1 UTB      -0.131300
     14 O1          -3.6510     9.5490     3.9530 o          1 UTB      -0.505000
     15 N3          -2.8220    11.4260     3.0390 ns         1 UTB      -0.470500
     16 O2          -2.1960    13.3320     2.0780 o          1 UTB      -0.545000
     17 C11         -0.7080     7.5260     5.0510 ch         1 UTB      -0.080000
     18 C12         -0.3860     6.2810     5.6750 ca         1 UTB       0.038000
     19 C13          0.9360     5.9550     6.0830 ca         1 UTB      -0.010000
     20 C14         -1.4280     5.3580     5.8820 ca         1 UTB      -0.080000
     21 C15         -1.1760     4.1190     6.4890 ca         1 UTB      -0.098000
     22 C16          1.1830     4.7010     6.6960 ca         1 UTB      -0.019000
     23 C17          0.1250     3.7860     6.8970 ca         1 UTB      -0.024000
     24 C18          2.0190     6.8480     5.8970 ca         1 UTB      -0.095000
     25 C19          3.3160     6.5000     6.3110 ca         1 UTB      -0.093000
     26 C20          2.4900     4.3540     7.1110 ca         1 UTB      -0.014000
     27 C21          3.5560     5.2570     6.9170 ca         1 UTB      -0.035000
     28 C22          4.8560     4.9100     7.3310 ca         1 UTB      -0.092000
     29 C23          5.0940     3.6650     7.9370 ca         1 UTB      -0.107000
     30 C24          2.7320     3.1020     7.7210 ca         1 UTB      -0.035000
     31 C25          4.0350     2.7620     8.1320 ca         1 UTB      -0.091000
     32 C26          1.6720     2.2000     7.9150 ca         1 UTB      -0.091000
     33 C27          0.3730     2.5410     7.5050 ca         1 UTB      -0.098000
     34 HO5         -1.6880    14.9010     1.4320 ho         1 UTB       0.522000
     35 H5           0.2250    16.4660     0.0200 h1         1 UTB       0.050700
     36 H5'          0.0470    16.7240     1.7620 h1         1 UTB       0.050700
     37 H4           1.7560    15.0050     1.2950 h1         1 UTB       0.059700
     38 H3          -0.5660    13.3580     0.0400 h1         1 UTB       0.084700
     39 H2'          0.7460    11.4070     0.7640 hc         1 UTB       0.079200
     40 H2           2.1870    12.3820     1.0350 hc         1 UTB       0.079200
     41 H1           0.6890    14.3110    -1.5630 ho         1 UTB       0.516000
     42 H8           1.4240    12.5830     3.2640 h2         1 UTB       0.061700
     43 H6           0.8110    10.4630     3.6400 h4         1 UTB       0.212000
     44 H7          -3.7700    11.7130     2.8610 hn         1 UTB       0.346500
     45 H19         -2.4420     5.6030     5.5710 ha         1 UTB       0.129000
     46 H20         -1.9950     3.4190     6.6400 ha         1 UTB       0.119000
     47 H12          1.8740     7.8200     5.4330 ha         1 UTB       0.116000
     48 H13          4.1330     7.2010     6.1580 ha         1 UTB       0.113000
     49 H14          5.6820     5.6020     7.1840 ha         1 UTB       0.114000
     50 H15          6.1000     3.3990     8.2560 ha         1 UTB       0.115000
     51 H16          4.2280     1.8000     8.6020 ha         1 UTB       0.115000
     52 H17          1.8510     1.2350     8.3840 ha         1 UTB       0.115000
     53 H18         -0.4400     1.8360     7.6600 ha         1 UTB       0.116000
     54 O5          -1.5360    15.6990     0.8520 oh         1 UTB      -0.713000
@<TRIPOS>BOND
     1     1     2 1   
     2     1    14 2   
     3     1    15 1   
     4     2    12 2   
     5     2    13 1   
     6     3     4 1   
     7     3    15 1   
     8     3    16 2   
     9     4    11 1   
    10     4    12 1   
    11     5     6 1   
    12     5    35 1   
    13     5    36 1   
    14     5    54 1   
    15     6     7 1   
    16     6     8 1   
    17     6    37 1   
    18     7    11 1   
    19     8     9 1   
    20     8    10 1   
    21     8    38 1   
    22     9    11 1   
    23     9    39 1   
    24     9    40 1   
    25    10    41 1   
    26    11    42 1   
    27    12    43 1   
    28    13    17 3   
    29    15    44 1   
    30    17    18 1   
    31    18    19 ar  
    32    18    20 ar  
    33    19    22 ar  
    34    19    24 ar  
    35    20    21 ar  
    36    20    45 1   
    37    21    23 ar  
    38    21    46 1   
    39    22    23 ar  
    40    22    26 ar  
    41    23    33 ar  
    42    24    25 ar  
    43    24    47 1   
    44    25    27 ar  
    45    25    48 1   
    46    26    27 ar  
    47    26    30 ar  
    48    27    28 ar  
    49    28    29 ar  
    50    28    49 1   
    51    29    31 ar  
    52    29    50 1   
    53    30    31 ar  
    54    30    32 ar  
    55    31    51 1   
    56    32    33 ar  
    57    32    52 1   
    58    33    53 1   
    59    34    54 1   
@<TRIPOS>SUBSTRUCTURE
     1 UTB         1 TEMP              0 ****  ****    0 ROOT
