@<TRIPOS>MOLECULE
UTC
   73    78     1     0     0
SMALL
No Charge or Current Charge


@<TRIPOS>ATOM
      1 CAX        -39.8000    63.2760   -66.5010 ca         1 UTC      -0.102000
      2 CAW        -38.6770    62.4880   -66.2080 ca         1 UTC      -0.115000
      3 CAV        -38.3590    61.3900   -67.0190 ca         1 UTC      -0.087000
      4 CAU        -39.1650    61.0750   -68.1280 ca         1 UTC      -0.040000
      5 CAT        -38.8290    59.9720   -68.9360 ca         1 UTC      -0.100000
      6 CAS        -39.6190    59.6420   -70.0480 ca         1 UTC      -0.103000
      7 CAR        -40.7490    60.4150   -70.3560 ca         1 UTC      -0.104000
      8 CAQ        -41.0910    61.5170   -69.5540 ca         1 UTC      -0.102000
      9 CAP        -40.3030    61.8640   -68.4310 ca         1 UTC      -0.018000
     10 CAY        -40.6210    62.9770   -67.6080 ca         1 UTC      -0.097300
     11 CAZ        -41.8170    63.8900   -67.8900 c3         1 UTC       0.138300
     12 NBH        -41.6610    64.7560   -69.0890 n          1 UTC      -0.405800
     13 CBI        -40.3550    65.4580   -69.2730 c6         1 UTC       0.091000
     14 CBO        -40.1270    65.9050   -70.7330 c6         1 UTC       0.257100
     15 C          -42.7220    64.8860   -70.0260 c          1 UTC       0.555000
     16 O          -43.7700    64.2690   -69.8850 o          1 UTC      -0.570000
     17 CA         -42.5490    65.8690   -71.2280 c6         1 UTC       0.032700
     18 CB         -42.7110    65.0910   -72.5680 c3         1 UTC      -0.028100
     19 CG         -42.5260    65.9770   -73.7960 ca         1 UTC      -0.117300
     20 CD1        -41.2630    66.0810   -74.4130 ca         1 UTC      -0.061500
     21 CE1        -41.0880    66.9180   -75.5280 ca         1 UTC      -0.170000
     22 CZ         -42.1700    67.6530   -76.0320 ca         1 UTC       0.134100
     23 OH         -41.9910    68.4620   -77.1140 oh         1 UTC      -0.543100
     24 CE2        -43.4310    67.5550   -75.4220 ca         1 UTC      -0.170000
     25 CD2        -43.6090    66.7200   -74.3040 ca         1 UTC      -0.061500
     26 N          -41.2890    66.6720   -71.2130 n          1 UTC      -0.435800
     27 CBK        -41.2880    68.0800   -71.2760 c          1 UTC       0.574000
     28 OBA        -42.3270    68.7250   -71.3050 o          1 UTC      -0.550000
     29 CBL        -39.9360    68.7900   -71.3060 c6         1 UTC      -0.190400
     30 CBM        -38.8770    68.0320   -70.4960 c6         1 UTC       0.087000
     31 NBN        -38.8530    66.6230   -70.9570 n          1 UTC      -0.408800
     32 CBE        -37.8490    66.0680   -71.7730 c          1 UTC       0.646100
     33 OBD        -37.9160    64.9270   -72.2000 o          1 UTC      -0.629100
     34 NBC        -36.7850    66.8780   -72.0670 ns         1 UTC      -0.508900
     35 CAG        -35.6590    66.4850   -72.9060 c3         1 UTC       0.156300
     36 CAF        -34.7010    67.6490   -73.1030 ca         1 UTC      -0.118300
     37 CAA        -34.9130    68.5730   -74.1450 ca         1 UTC      -0.098000
     38 CAB        -34.0320    69.6540   -74.3240 ca         1 UTC      -0.109500
     39 CAC        -32.9360    69.8190   -73.4600 ca         1 UTC      -0.106000
     40 CAD        -32.7210    68.9010   -72.4180 ca         1 UTC      -0.109500
     41 CAE        -33.6020    67.8200   -72.2390 ca         1 UTC      -0.098000
     42 H1         -40.0280    64.1290   -65.8660 ha         1 UTC       0.108000
     43 H2         -38.0510    62.7300   -65.3520 ha         1 UTC       0.114000
     44 H3         -37.4860    60.7850   -66.7860 ha         1 UTC       0.114000
     45 H4         -37.9550    59.3680   -68.7030 ha         1 UTC       0.112000
     46 H5         -39.3560    58.7890   -70.6700 ha         1 UTC       0.114000
     47 H6         -41.3620    60.1590   -71.2170 ha         1 UTC       0.116000
     48 H7         -41.9750    62.0880   -69.8200 ha         1 UTC       0.132000
     49 H8         -41.9860    64.5440   -67.0250 h1         1 UTC       0.069200
     50 H9         -42.7120    63.2620   -67.9760 h1         1 UTC       0.069200
     51 H10        -39.5210    64.8060   -68.9810 h1         1 UTC       0.060200
     52 H11        -40.3350    66.3350   -68.6120 h1         1 UTC       0.060200
     53 H12        -40.0960    64.9850   -71.3370 h2         1 UTC       0.111700
     54 H13        -43.4080    66.5480   -71.1430 h1         1 UTC       0.116700
     55 H14        -43.7000    64.6170   -72.6050 hc         1 UTC       0.063700
     56 H15        -41.9910    64.2630   -72.6020 hc         1 UTC       0.063700
     57 H16        -40.4150    65.5210   -74.0230 ha         1 UTC       0.120000
     58 H17        -40.1110    66.9970   -75.9980 ha         1 UTC       0.119000
     59 H18        -42.8470    68.8920   -77.3250 ho         1 UTC       0.461000
     60 H19        -44.2750    68.1240   -75.8050 ha         1 UTC       0.119000
     61 H20        -44.5870    66.6550   -73.8310 ha         1 UTC       0.120000
     62 H21        -39.6070    68.7670   -72.3520 hc         1 UTC       0.084200
     63 H22        -40.0450    69.8410   -71.0100 hc         1 UTC       0.084200
     64 H23        -37.9000    68.5230   -70.5950 h1         1 UTC       0.061700
     65 H24        -39.1390    68.0640   -69.4280 h1         1 UTC       0.061700
     66 H25        -36.7930    67.8120   -71.6840 hn         1 UTC       0.314500
     67 H26        -36.0370    66.1450   -73.8800 h1         1 UTC       0.070700
     68 H27        -35.1350    65.6430   -72.4340 h1         1 UTC       0.070700
     69 H28        -35.7620    68.4550   -74.8160 ha         1 UTC       0.115500
     70 H29        -34.2000    70.3650   -75.1300 ha         1 UTC       0.114000
     71 H30        -32.2540    70.6550   -73.5990 ha         1 UTC       0.114000
     72 H31        -31.8740    69.0290   -71.7480 ha         1 UTC       0.114000
     73 H32        -33.4300    67.1160   -71.4270 ha         1 UTC       0.115500
@<TRIPOS>BOND
     1     1     2 ar  
     2     1    10 ar  
     3     1    42 1   
     4     2     3 ar  
     5     2    43 1   
     6     3     4 ar  
     7     3    44 1   
     8     4     5 ar  
     9     4     9 ar  
    10     5     6 ar  
    11     5    45 1   
    12     6     7 ar  
    13     6    46 1   
    14     7     8 ar  
    15     7    47 1   
    16     8     9 ar  
    17     8    48 1   
    18     9    10 ar  
    19    10    11 1   
    20    11    12 1   
    21    11    49 1   
    22    11    50 1   
    23    12    13 1   
    24    12    15 1   
    25    13    14 1   
    26    13    51 1   
    27    13    52 1   
    28    14    26 1   
    29    14    31 1   
    30    14    53 1   
    31    15    16 2   
    32    15    17 1   
    33    17    18 1   
    34    17    26 1   
    35    17    54 1   
    36    18    19 1   
    37    18    55 1   
    38    18    56 1   
    39    19    20 ar  
    40    19    25 ar  
    41    20    21 ar  
    42    20    57 1   
    43    21    22 ar  
    44    21    58 1   
    45    22    23 1   
    46    22    24 ar  
    47    23    59 1   
    48    24    25 ar  
    49    24    60 1   
    50    25    61 1   
    51    26    27 1   
    52    27    28 2   
    53    27    29 1   
    54    29    30 1   
    55    29    62 1   
    56    29    63 1   
    57    30    31 1   
    58    30    64 1   
    59    30    65 1   
    60    31    32 1   
    61    32    33 2   
    62    32    34 1   
    63    34    35 1   
    64    34    66 1   
    65    35    36 1   
    66    35    67 1   
    67    35    68 1   
    68    36    37 ar  
    69    36    41 ar  
    70    37    38 ar  
    71    37    69 1   
    72    38    39 ar  
    73    38    70 1   
    74    39    40 ar  
    75    39    71 1   
    76    40    41 ar  
    77    40    72 1   
    78    41    73 1   
@<TRIPOS>SUBSTRUCTURE
     1 UTC         1 TEMP              0 ****  ****    0 ROOT
