@<TRIPOS>MOLECULE
UTC
   73    78     1     0     0
SMALL
abcg2


@<TRIPOS>ATOM
      1 CAX        -39.0250    63.6080   -66.8570 ca         1 UTC      -0.102000
      2 CAW        -37.8680    62.8040   -66.7810 ca         1 UTC      -0.115000
      3 CAV        -37.7220    61.7340   -67.6210 ca         1 UTC      -0.087000
      4 CAU        -38.7320    61.4140   -68.5610 ca         1 UTC      -0.040000
      5 CAT        -38.5980    60.3060   -69.4340 ca         1 UTC      -0.100000
      6 CAS        -39.5840    59.9940   -70.3340 ca         1 UTC      -0.103000
      7 CAR        -40.7570    60.7760   -70.3920 ca         1 UTC      -0.104000
      8 CAQ        -40.9180    61.8580   -69.5620 ca         1 UTC      -0.102000
      9 CAP        -39.9130    62.2180   -68.6270 ca         1 UTC      -0.018000
     10 CAY        -40.0320    63.3400   -67.7530 ca         1 UTC      -0.097300
     11 CAZ        -41.2340    64.2510   -67.8110 c3         1 UTC       0.138300
     12 NBH        -41.3040    65.0170   -69.0630 n          1 UTC      -0.405800
     13 CBI        -40.1880    65.9320   -69.3030 c6         1 UTC       0.091000
     14 CBO        -40.1150    66.3370   -70.7650 c6         1 UTC       0.257100
     15 C          -42.4130    64.9550   -69.8310 c          1 UTC       0.555000
     16 O          -43.3780    64.2360   -69.5610 o          1 UTC      -0.570000
     17 CA         -42.4520    65.7490   -71.1330 c6         1 UTC       0.032700
     18 CB         -42.3370    64.7660   -72.3290 c3         1 UTC      -0.028100
     19 CG         -42.4110    65.4730   -73.6530 ca         1 UTC      -0.117300
     20 CD1        -41.2630    65.9800   -74.2640 ca         1 UTC      -0.061500
     21 CE1        -41.3330    66.6950   -75.4530 ca         1 UTC      -0.170000
     22 CZ         -42.5690    66.9110   -76.0570 ca         1 UTC       0.134100
     23 OH         -42.5900    67.6180   -77.2280 oh         1 UTC      -0.543100
     24 CE2        -43.7260    66.4050   -75.4680 ca         1 UTC      -0.170000
     25 CD2        -43.6380    65.6950   -74.2770 ca         1 UTC      -0.061500
     26 N          -41.4470    66.7960   -71.1830 n          1 UTC      -0.435800
     27 CBK        -41.7850    68.0670   -71.5180 c          1 UTC       0.574000
     28 OBA        -42.9330    68.3830   -71.8290 o          1 UTC      -0.550000
     29 CBL        -40.6760    69.0980   -71.5060 c6         1 UTC      -0.190400
     30 CBM        -39.4980    68.6710   -70.6460 c6         1 UTC       0.087000
     31 NBN        -39.0940    67.3170   -71.0220 n          1 UTC      -0.408800
     32 CBE        -38.2140    67.0380   -72.0670 c          1 UTC       0.646100
     33 OBD        -38.0960    65.8930   -72.5130 o          1 UTC      -0.629100
     34 NBC        -37.4890    68.0760   -72.5460 ns         1 UTC      -0.508900
     35 CAG        -36.4560    67.9030   -73.5510 c3         1 UTC       0.156300
     36 CAF        -35.0520    67.8180   -72.9910 ca         1 UTC      -0.118300
     37 CAA        -33.9970    68.4200   -73.6740 ca         1 UTC      -0.098000
     38 CAB        -32.6930    68.3200   -73.1990 ca         1 UTC      -0.109500
     39 CAC        -32.4300    67.6170   -72.0280 ca         1 UTC      -0.106000
     40 CAD        -33.4790    67.0180   -71.3370 ca         1 UTC      -0.109500
     41 CAE        -34.7810    67.1180   -71.8160 ca         1 UTC      -0.098000
     42 H1         -39.1190    64.4640   -66.1990 ha         1 UTC       0.108000
     43 H2         -37.0960    63.0480   -66.0620 ha         1 UTC       0.114000
     44 H3         -36.8340    61.1140   -67.5810 ha         1 UTC       0.114000
     45 H4         -37.6960    59.7080   -69.3740 ha         1 UTC       0.112000
     46 H5         -39.4700    59.1460   -70.9970 ha         1 UTC       0.114000
     47 H6         -41.5380    60.5190   -71.0960 ha         1 UTC       0.116000
     48 H7         -41.8310    62.4330   -69.6160 ha         1 UTC       0.132000
     49 H8         -41.1880    64.9570   -66.9780 h1         1 UTC       0.069200
     50 H9         -42.1630    63.6930   -67.7300 h1         1 UTC       0.069200
     51 H10        -39.2630    65.4210   -69.0420 h1         1 UTC       0.060200
     52 H11        -40.2920    66.8050   -68.6540 h1         1 UTC       0.060200
     53 H12        -39.8640    65.4570   -71.3510 h2         1 UTC       0.111700
     54 H13        -43.4240    66.2340   -71.1730 h1         1 UTC       0.116700
     55 H14        -43.1480    64.0460   -72.2310 hc         1 UTC       0.063700
     56 H15        -41.4000    64.2110   -72.2460 hc         1 UTC       0.063700
     57 H16        -40.2940    65.8160   -73.8080 ha         1 UTC       0.120000
     58 H17        -40.4370    67.0850   -75.9190 ha         1 UTC       0.119000
     59 H18        -43.4990    67.7000   -77.5460 ho         1 UTC       0.461000
     60 H19        -44.6870    66.5680   -75.9420 ha         1 UTC       0.119000
     61 H20        -44.5450    65.3120   -73.8220 ha         1 UTC       0.120000
     62 H21        -40.3580    69.2470   -72.5420 hc         1 UTC       0.084200
     63 H22        -41.1060    70.0370   -71.1580 hc         1 UTC       0.084200
     64 H23        -38.6670    69.3680   -70.7100 h1         1 UTC       0.061700
     65 H24        -39.7860    68.6530   -69.5950 h1         1 UTC       0.061700
     66 H25        -37.5540    68.9820   -72.1170 hn         1 UTC       0.314500
     67 H26        -36.5180    68.7370   -74.2510 h1         1 UTC       0.070700
     68 H27        -36.6910    66.9940   -74.1030 h1         1 UTC       0.070700
     69 H28        -34.1980    68.9760   -74.5830 ha         1 UTC       0.115500
     70 H29        -31.8840    68.7970   -73.7400 ha         1 UTC       0.114000
     71 H30        -31.4170    67.5400   -71.6530 ha         1 UTC       0.114000
     72 H31        -33.2840    66.4710   -70.4220 ha         1 UTC       0.114000
     73 H32        -35.5900    66.6490   -71.2690 ha         1 UTC       0.115500
@<TRIPOS>BOND
     1     1     2 ar  
     2     1    10 ar  
     3     1    42 1   
     4     2     3 ar  
     5     2    43 1   
     6     3     4 ar  
     7     3    44 1   
     8     4     5 ar  
     9     4     9 ar  
    10     5     6 ar  
    11     5    45 1   
    12     6     7 ar  
    13     6    46 1   
    14     7     8 ar  
    15     7    47 1   
    16     8     9 ar  
    17     8    48 1   
    18     9    10 ar  
    19    10    11 1   
    20    11    12 1   
    21    11    49 1   
    22    11    50 1   
    23    12    13 1   
    24    12    15 1   
    25    13    14 1   
    26    13    51 1   
    27    13    52 1   
    28    14    26 1   
    29    14    31 1   
    30    14    53 1   
    31    15    16 2   
    32    15    17 1   
    33    17    18 1   
    34    17    26 1   
    35    17    54 1   
    36    18    19 1   
    37    18    55 1   
    38    18    56 1   
    39    19    20 ar  
    40    19    25 ar  
    41    20    21 ar  
    42    20    57 1   
    43    21    22 ar  
    44    21    58 1   
    45    22    23 1   
    46    22    24 ar  
    47    23    59 1   
    48    24    25 ar  
    49    24    60 1   
    50    25    61 1   
    51    26    27 1   
    52    27    28 2   
    53    27    29 1   
    54    29    30 1   
    55    29    62 1   
    56    29    63 1   
    57    30    31 1   
    58    30    64 1   
    59    30    65 1   
    60    31    32 1   
    61    32    33 2   
    62    32    34 1   
    63    34    35 1   
    64    34    66 1   
    65    35    36 1   
    66    35    67 1   
    67    35    68 1   
    68    36    37 ar  
    69    36    41 ar  
    70    37    38 ar  
    71    37    69 1   
    72    38    39 ar  
    73    38    70 1   
    74    39    40 ar  
    75    39    71 1   
    76    40    41 ar  
    77    40    72 1   
    78    41    73 1   
@<TRIPOS>SUBSTRUCTURE
     1 UTC         1 TEMP              0 ****  ****    0 ROOT
