@<TRIPOS>MOLECULE
UTE
   43    45     1     0     0
SMALL
abcg2


@<TRIPOS>ATOM
      1 N3         -41.4750    -1.6470   -10.9610 n          1 UTE      -0.309600
      2 C4         -41.4180    -3.0400   -11.3250 ca         1 UTE       0.093600
      3 C5         -42.5060    -3.8650   -11.0260 ca         1 UTE      -0.087300
      4 C6         -43.7360    -3.3330   -10.3480 c3         1 UTE      -0.041800
      5 C7         -42.3930    -5.2010   -11.3830 ca         1 UTE      -0.039000
      6 C8         -41.2400    -5.6970   -12.0010 ca         1 UTE      -0.039000
      7 C13        -37.9070    -4.6390   -12.9880 ca         1 UTE       0.077100
      8 C15        -35.9160    -3.7570   -12.0350 ca         1 UTE      -0.106000
      9 C17        -36.3650    -3.4520   -14.3830 ca         1 UTE      -0.107000
     10 C20        -40.2690    -3.4980   -11.9440 ca         1 UTE      -0.163000
     11 C21        -42.0310    -0.7740   -11.8900 c          1 UTE       0.622000
     12 C24        -41.6270     0.9700   -10.2700 cc         1 UTE       0.001400
     13 C14        -37.1050    -4.4680   -11.8590 ca         1 UTE      -0.075300
     14 C16        -35.5460    -3.2520   -13.2770 ca         1 UTE      -0.104000
     15 C18        -37.5570    -4.1520   -14.2360 ca         1 UTE      -0.101000
     16 C11        -40.1670    -4.8400   -12.2850 ca         1 UTE       0.180100
     17 C9         -41.1430    -7.0780   -12.3350 cg         1 UTE       0.336000
     18 N10        -41.0680    -8.1990   -12.5940 n1         1 UTE      -0.447000
     19 C2         -40.9810    -1.2800    -9.6930 c          1 UTE       0.585200
     20 O1         -40.5140    -2.1230    -8.9460 o          1 UTE      -0.491000
     21 C29        -41.0860     0.1290    -9.3760 cd         1 UTE      -0.307200
     22 C25        -41.7830     2.4510   -10.0050 c3         1 UTE       0.344200
     23 F27        -41.3760     2.7820    -8.7770 f          1 UTE      -0.095333
     24 F28        -43.0710     2.8230   -10.1320 f          1 UTE      -0.095333
     25 F26        -41.0690     3.1780   -10.8860 f          1 UTE      -0.095333
     26 N23        -42.0800     0.5410   -11.4850 ns         1 UTE      -0.511600
     27 O22        -42.4460    -1.1350   -12.9740 o          1 UTE      -0.519000
     28 H1         -44.1990    -2.5400   -10.9380 hc         1 UTE       0.048700
     29 H2         -44.4670    -4.1270   -10.2100 hc         1 UTE       0.048700
     30 H3         -43.4950    -2.9140    -9.3690 hc         1 UTE       0.048700
     31 H4         -43.2070    -5.8830   -11.1750 ha         1 UTE       0.132000
     32 H5         -35.2690    -3.6090   -11.1790 ha         1 UTE       0.118000
     33 H6         -36.0820    -3.0670   -15.3540 ha         1 UTE       0.121000
     34 H7         -39.4590    -2.8120   -12.1490 ha         1 UTE       0.142000
     35 H8         -37.8730    -6.0390   -10.6040 hc         1 UTE       0.054367
     36 H9         -36.6500    -5.0110    -9.8390 hc         1 UTE       0.054367
     37 H10        -38.2970    -4.4210   -10.0650 hc         1 UTE       0.054367
     38 H11        -34.6160    -2.7080   -13.3810 ha         1 UTE       0.118000
     39 H12        -38.2200    -4.3230   -15.0750 ha         1 UTE       0.133000
     40 H13        -40.7300     0.4640    -8.4160 ha         1 UTE       0.241000
     41 H14        -42.4810     1.1870   -12.1520 hn         1 UTE       0.476000
     42 O12        -39.0840    -5.3880   -12.8910 os         1 UTE      -0.242200
     43 C19        -37.5010    -5.0170   -10.5180 c3         1 UTE      -0.054800
@<TRIPOS>BOND
     1     1     2 1   
     2     1    11 1   
     3     1    19 1   
     4     2     3 ar  
     5     2    10 ar  
     6     3     4 1   
     7     3     5 ar  
     8     4    28 1   
     9     4    29 1   
    10     4    30 1   
    11     5     6 ar  
    12     5    31 1   
    13     6    16 ar  
    14     6    17 1   
    15     7    13 ar  
    16     7    15 ar  
    17     7    42 1   
    18     8    13 ar  
    19     8    14 ar  
    20     8    32 1   
    21     9    14 ar  
    22     9    15 ar  
    23     9    33 1   
    24    10    16 ar  
    25    10    34 1   
    26    11    26 1   
    27    11    27 2   
    28    12    21 2   
    29    12    22 1   
    30    12    26 1   
    31    13    43 1   
    32    14    38 1   
    33    15    39 1   
    34    16    42 1   
    35    17    18 3   
    36    19    20 2   
    37    19    21 1   
    38    21    40 1   
    39    22    23 1   
    40    22    24 1   
    41    22    25 1   
    42    26    41 1   
    43    35    43 1   
    44    36    43 1   
    45    37    43 1   
@<TRIPOS>SUBSTRUCTURE
     1 UTE         1 TEMP              0 ****  ****    0 ROOT
