@<TRIPOS>MOLECULE
UTE
   43    45     1     0     0
SMALL
No Charge or Current Charge


@<TRIPOS>ATOM
      1 N3         -41.5060    -1.6190   -10.9850 n          1 UTE      -0.309600
      2 C4         -41.4400    -3.0030   -11.3460 ca         1 UTE       0.093600
      3 C5         -42.4680    -3.9020   -10.9850 ca         1 UTE      -0.087300
      4 C6         -43.6850    -3.4300   -10.1930 c3         1 UTE      -0.041800
      5 C7         -42.3630    -5.2570   -11.3590 ca         1 UTE      -0.039000
      6 C8         -41.2420    -5.7190   -12.0750 ca         1 UTE      -0.039000
      7 C13        -37.8910    -4.6410   -13.0750 ca         1 UTE       0.077100
      8 C15        -35.9070    -3.8840   -11.8850 ca         1 UTE      -0.106000
      9 C17        -36.1580    -3.4050   -14.2590 ca         1 UTE      -0.107000
     10 C20        -40.3220    -3.4640   -12.0610 ca         1 UTE      -0.163000
     11 C21        -42.2680    -0.7510   -11.7780 c          1 UTE       0.622000
     12 C24        -41.6610     1.1110   -10.3010 cc         1 UTE       0.001400
     13 C14        -37.1440    -4.5590   -11.8750 ca         1 UTE      -0.075300
     14 C16        -35.4170    -3.3080   -13.0700 ca         1 UTE      -0.104000
     15 C18        -37.3940    -4.0740   -14.2600 ca         1 UTE      -0.101000
     16 C11        -40.2130    -4.8210   -12.4210 ca         1 UTE       0.180100
     17 C9         -41.1550    -7.1070   -12.4350 cg         1 UTE       0.336000
     18 N10        -41.0960    -8.2380   -12.7210 n1         1 UTE      -0.447000
     19 C2         -40.7970    -1.1850    -9.8530 c          1 UTE       0.585200
     20 O1         -40.1280    -1.9420    -9.1640 o          1 UTE      -0.491000
     21 C29        -40.9130     0.2470    -9.5410 cd         1 UTE      -0.307200
     22 C25        -41.8550     2.6070   -10.0750 c3         1 UTE       0.344200
     23 F27        -41.1890     3.0480    -8.9830 f          1 UTE      -0.095333
     24 F28        -43.1590     2.9170    -9.8960 f          1 UTE      -0.095333
     25 F26        -41.4120     3.3290   -11.1290 f          1 UTE      -0.095333
     26 N23        -42.3070     0.5590   -11.3950 ns         1 UTE      -0.511600
     27 O22        -42.8750    -1.1160   -12.7700 o          1 UTE      -0.519000
     28 H1         -44.3200    -2.7750   -10.8000 hc         1 UTE       0.048700
     29 H2         -44.3050    -4.2710    -9.8580 hc         1 UTE       0.048700
     30 H3         -43.3840    -2.8730    -9.2980 hc         1 UTE       0.048700
     31 H4         -43.1530    -5.9540   -11.0870 ha         1 UTE       0.132000
     32 H5         -35.3200    -3.8050   -10.9720 ha         1 UTE       0.118000
     33 H6         -35.7770    -2.9630   -15.1770 ha         1 UTE       0.121000
     34 H7         -39.5410    -2.7600   -12.3330 ha         1 UTE       0.142000
     35 H8         -38.1070    -6.1660   -10.7580 hc         1 UTE       0.054367
     36 H9         -36.8240    -5.3480    -9.8650 hc         1 UTE       0.054367
     37 H10        -38.3860    -4.5480   -10.0880 hc         1 UTE       0.054367
     38 H11        -34.4610    -2.7900   -13.0670 ha         1 UTE       0.118000
     39 H12        -37.9710    -4.1480   -15.1790 ha         1 UTE       0.133000
     40 H13        -40.3620     0.5640    -8.6630 ha         1 UTE       0.241000
     41 H14        -42.8740     1.1440   -12.0030 hn         1 UTE       0.476000
     42 O12        -39.1100    -5.2790   -13.1140 os         1 UTE      -0.242200
     43 C19        -37.6430    -5.1890   -10.5770 c3         1 UTE      -0.054800
@<TRIPOS>BOND
     1     1     2 1   
     2     1    11 1   
     3     1    19 1   
     4     2     3 ar  
     5     2    10 ar  
     6     3     4 1   
     7     3     5 ar  
     8     4    28 1   
     9     4    29 1   
    10     4    30 1   
    11     5     6 ar  
    12     5    31 1   
    13     6    16 ar  
    14     6    17 1   
    15     7    13 ar  
    16     7    15 ar  
    17     7    42 1   
    18     8    13 ar  
    19     8    14 ar  
    20     8    32 1   
    21     9    14 ar  
    22     9    15 ar  
    23     9    33 1   
    24    10    16 ar  
    25    10    34 1   
    26    11    26 1   
    27    11    27 2   
    28    12    21 2   
    29    12    22 1   
    30    12    26 1   
    31    13    43 1   
    32    14    38 1   
    33    15    39 1   
    34    16    42 1   
    35    17    18 3   
    36    19    20 2   
    37    19    21 1   
    38    21    40 1   
    39    22    23 1   
    40    22    24 1   
    41    22    25 1   
    42    26    41 1   
    43    35    43 1   
    44    36    43 1   
    45    37    43 1   
@<TRIPOS>SUBSTRUCTURE
     1 UTE         1 TEMP              0 ****  ****    0 ROOT
