@<TRIPOS>MOLECULE
UTF
  114   118     1     0     0
SMALL
abcg2


@<TRIPOS>ATOM
      1 N          -21.8310    -8.2220   -23.1270 ns         1 UTF      -0.449900
      2 CA         -22.7700    -7.7130   -24.1010 c3         1 UTF      -0.045300
      3 C          -22.4050    -6.2940   -24.6170 c          1 UTF       0.718000
      4 OXT        -21.3870    -5.7530   -24.1540 o          1 UTF      -0.723000
      5 CB         -24.2030    -7.7810   -23.5680 c3         1 UTF      -0.060400
      6 CG         -24.5260    -6.7970   -22.4480 c3         1 UTF      -0.081400
      7 CD         -25.9750    -6.9050   -21.9740 c3         1 UTF      -0.098400
      8 CE         -26.2710    -8.1500   -21.1440 c3         1 UTF       0.102000
      9 NZ         -25.6170    -8.1460   -19.8530 ns         1 UTF      -0.486900
     10 O          -23.1880    -5.8360   -25.4730 o          1 UTF      -0.723000
     11 C10        -19.2350    -9.2200   -17.0480 ca         1 UTF      -0.080300
     12 C11        -18.0010    -8.9090   -17.6120 ca         1 UTF      -0.097500
     13 C12        -16.9400    -9.8010   -17.5710 ca         1 UTF      -0.121500
     14 C13        -17.0880   -11.0390   -16.9550 ca         1 UTF      -0.042000
     15 C15        -16.0470   -13.2490   -17.1670 c          1 UTF       0.598100
     16 C17        -14.6880   -13.9560   -17.1840 c3         1 UTF       0.040700
     17 C2         -25.3150    -7.6290   -17.4830 c3         1 UTF       0.017700
     18 C22        -15.4660   -16.6490   -14.6400 c3         1 UTF      -0.106100
     19 C23        -16.8840   -16.7590   -14.1490 ca         1 UTF      -0.079300
     20 C24        -17.9300   -16.8400   -15.0660 ca         1 UTF      -0.091500
     21 C25        -19.2470   -16.9150   -14.6350 ca         1 UTF      -0.110000
     22 C26        -19.5380   -16.9100   -13.2760 ca         1 UTF      -0.107000
     23 C27        -18.5030   -16.8310   -12.3550 ca         1 UTF      -0.110000
     24 C28        -17.1850   -16.7530   -12.7910 ca         1 UTF      -0.091500
     25 C29        -14.2260   -14.2110   -18.6250 c6         1 UTF      -0.072700
     26 C30        -12.8290   -14.8400   -18.6490 c6         1 UTF      -0.073400
     27 C31        -12.3570   -15.1110   -20.0730 c6         1 UTF      -0.074400
     28 C32        -12.3740   -13.8410   -20.9140 c6         1 UTF      -0.075400
     29 C33        -13.7570   -13.2030   -20.8930 c6         1 UTF      -0.074400
     30 C34        -14.2340   -12.9340   -19.4700 c6         1 UTF      -0.073400
     31 C35        -18.3070   -11.3570   -16.3630 ca         1 UTF      -0.121500
     32 C36        -19.3590   -10.4560   -16.4150 ca         1 UTF      -0.097500
     33 C38        -21.7770    -9.3860   -19.7020 c          1 UTF       0.590100
     34 C40        -21.7730   -10.4800   -20.7430 c3         1 UTF      -0.151400
     35 C41        -20.4110   -10.6960   -21.4420 c5         1 UTF      -0.024000
     36 C42        -19.3280   -11.1020   -20.4300 c5         1 UTF      -0.081400
     37 C43        -19.6430   -12.5530   -20.0720 c5         1 UTF      -0.081400
     38 C44        -20.2670   -13.1540   -21.3490 c5         1 UTF      -0.081400
     39 C45        -20.5200   -11.9680   -22.3020 c5         1 UTF      -0.081400
     40 C46        -19.9550    -9.4670   -22.2470 c3         1 UTF      -0.157400
     41 C47        -20.8600    -9.1000   -23.4070 c          1 UTF       0.595100
     42 C5         -22.8620    -7.8330   -17.3800 c          1 UTF       0.607100
     43 C50        -26.1620    -7.6040   -18.7580 c          1 UTF       0.590100
     44 C7         -21.7350    -8.8710   -17.3070 c3         1 UTF       0.046700
     45 C9         -20.3640    -8.2230   -17.1100 c3         1 UTF      -0.038100
     46 N14        -15.9930   -11.9210   -16.9180 ns         1 UTF      -0.142000
     47 N19        -14.8130   -15.2110   -16.4820 ns         1 UTF      -0.495900
     48 N37        -21.7910    -9.7930   -18.4190 ns         1 UTF      -0.520900
     49 N4         -24.0810    -8.3670   -17.6210 ns         1 UTF      -0.508900
     50 O16        -17.0750   -13.8570   -17.4010 o          1 UTF      -0.587100
     51 O21        -15.4030   -14.2540   -14.5360 o          1 UTF      -0.591100
     52 O39        -21.7880    -8.1920   -19.9870 o          1 UTF      -0.583100
     53 O48        -20.7040    -9.6050   -24.5160 o          1 UTF      -0.656100
     54 O51        -27.2800    -7.1060   -18.7320 o          1 UTF      -0.624100
     55 O6         -22.6730    -6.6510   -17.1680 o          1 UTF      -0.570100
     56 H1         -21.8500    -7.8420   -22.1920 hn         1 UTF       0.321500
     57 H2         -22.7160    -8.3830   -24.9620 h1         1 UTF       0.065700
     58 H4         -24.8810    -7.5900   -24.4020 hc         1 UTF       0.023700
     59 H5         -24.3970    -8.8070   -23.2420 hc         1 UTF       0.023700
     60 H6         -23.8510    -6.9330   -21.5970 hc         1 UTF       0.057700
     61 H7         -24.3540    -5.7790   -22.8070 hc         1 UTF       0.057700
     62 H8         -26.2440    -6.0220   -21.3890 hc         1 UTF       0.045200
     63 H9         -26.6380    -6.9090   -22.8450 hc         1 UTF       0.045200
     64 H10        -27.3450    -8.2450   -20.9860 h1         1 UTF       0.045200
     65 H11        -25.9530    -9.0510   -21.6710 h1         1 UTF       0.045200
     66 H12        -24.6660    -8.4710   -19.8010 hn         1 UTF       0.326500
     67 H13        -25.5490    -8.0910   -15.3910 hc         1 UTF       0.043367
     68 H14        -27.0450    -7.5820   -16.1730 hc         1 UTF       0.043367
     69 H15        -26.4060    -9.2040   -16.4600 hc         1 UTF       0.043367
     70 H16        -17.8680    -7.9570   -18.1110 ha         1 UTF       0.114000
     71 H17        -15.9960    -9.5390   -18.0330 ha         1 UTF       0.123500
     72 H18        -13.9410   -13.3310   -16.6810 h1         1 UTF       0.068700
     73 H19        -25.0470    -6.5890   -17.2830 h1         1 UTF       0.108700
     74 H20        -15.2620   -17.4210   -15.3860 hc         1 UTF       0.062200
     75 H21        -14.7650   -16.8090   -13.8180 hc         1 UTF       0.062200
     76 H22        -17.7150   -16.8430   -16.1290 ha         1 UTF       0.114000
     77 H23        -20.0470   -16.9790   -15.3610 ha         1 UTF       0.112000
     78 H24        -20.5640   -16.9700   -12.9380 ha         1 UTF       0.110000
     79 H25        -18.7190   -16.8280   -11.2940 ha         1 UTF       0.112000
     80 H26        -16.3830   -16.6940   -12.0650 ha         1 UTF       0.114000
     81 H27        -14.9350   -14.9180   -19.0800 hc         1 UTF       0.065700
     82 H28        -12.8130   -15.7680   -18.0740 hc         1 UTF       0.042700
     83 H29        -12.1280   -14.1570   -18.1550 hc         1 UTF       0.042700
     84 H30        -13.0100   -15.8610   -20.5320 hc         1 UTF       0.043950
     85 H31        -11.3540   -15.5430   -20.0500 hc         1 UTF       0.043950
     86 H32        -12.0730   -14.0590   -21.9420 hc         1 UTF       0.041200
     87 H33        -11.6410   -13.1330   -20.5150 hc         1 UTF       0.041200
     88 H34        -13.7560   -12.2700   -21.4600 hc         1 UTF       0.043950
     89 H35        -14.4720   -13.8670   -21.3910 hc         1 UTF       0.043950
     90 H36        -13.5810   -12.1890   -19.0020 hc         1 UTF       0.042700
     91 H37        -15.2350   -12.4970   -19.5090 hc         1 UTF       0.042700
     92 H38        -18.4410   -12.2960   -15.8480 ha         1 UTF       0.123500
     93 H39        -20.2870   -10.7400   -15.9340 ha         1 UTF       0.114000
     94 H40        -22.5290   -10.2310   -21.4900 hc         1 UTF       0.064700
     95 H41        -22.0930   -11.4210   -20.2900 hc         1 UTF       0.064700
     96 H42        -18.3550   -11.0510   -20.9270 hc         1 UTF       0.053950
     97 H43        -19.2710   -10.4450   -19.5610 hc         1 UTF       0.053950
     98 H44        -20.3480   -12.6000   -19.2380 hc         1 UTF       0.034950
     99 H45        -18.7540   -13.0930   -19.7450 hc         1 UTF       0.034950
    100 H46        -21.1890   -13.6900   -21.1210 hc         1 UTF       0.034950
    101 H47        -19.5970   -13.8770   -21.8140 hc         1 UTF       0.034950
    102 H48        -19.7560   -11.9400   -23.0820 hc         1 UTF       0.053950
    103 H49        -21.4810   -12.0390   -22.8150 hc         1 UTF       0.053950
    104 H50        -18.9730    -9.6970   -22.6670 hc         1 UTF       0.063700
    105 H51        -19.8180    -8.6170   -21.5750 hc         1 UTF       0.063700
    106 H52        -21.9620    -9.4750   -16.4240 h1         1 UTF       0.047700
    107 H53        -20.1680    -7.5070   -17.9080 hc         1 UTF       0.081200
    108 H54        -20.3910    -7.6480   -16.1820 hc         1 UTF       0.081200
    109 H55        -15.0810   -11.5010   -16.8160 hn         1 UTF       0.153000
    110 H56        -14.7800   -16.0660   -17.0150 hn         1 UTF       0.320500
    111 H57        -21.7740   -10.7780   -18.2160 hn         1 UTF       0.317500
    112 H58        -24.1540    -9.3740   -17.6490 hn         1 UTF       0.306500
    113 C1         -26.1320    -8.1590   -16.3080 c3         1 UTF      -0.101100
    114 C20        -15.2220   -15.2610   -15.2020 c          1 UTF       0.600100
@<TRIPOS>BOND
     1     1     2 1   
     2     1    41 1   
     3     1    56 1   
     4     2     3 1   
     5     2     5 1   
     6     2    57 1   
     7     3     4 1   
     8     3    10 1   
     9     5     6 1   
    10     5    58 1   
    11     5    59 1   
    12     6     7 1   
    13     6    60 1   
    14     6    61 1   
    15     7     8 1   
    16     7    62 1   
    17     7    63 1   
    18     8     9 1   
    19     8    64 1   
    20     8    65 1   
    21     9    43 1   
    22     9    66 1   
    23    11    12 ar  
    24    11    32 ar  
    25    11    45 1   
    26    12    13 ar  
    27    12    70 1   
    28    13    14 ar  
    29    13    71 1   
    30    14    31 ar  
    31    14    46 1   
    32    15    16 1   
    33    15    46 1   
    34    15    50 2   
    35    16    25 1   
    36    16    47 1   
    37    16    72 1   
    38    17    43 1   
    39    17    49 1   
    40    17    73 1   
    41    17   113 1   
    42    18    19 1   
    43    18    74 1   
    44    18    75 1   
    45    18   114 1   
    46    19    20 ar  
    47    19    24 ar  
    48    20    21 ar  
    49    20    76 1   
    50    21    22 ar  
    51    21    77 1   
    52    22    23 ar  
    53    22    78 1   
    54    23    24 ar  
    55    23    79 1   
    56    24    80 1   
    57    25    26 1   
    58    25    30 1   
    59    25    81 1   
    60    26    27 1   
    61    26    82 1   
    62    26    83 1   
    63    27    28 1   
    64    27    84 1   
    65    27    85 1   
    66    28    29 1   
    67    28    86 1   
    68    28    87 1   
    69    29    30 1   
    70    29    88 1   
    71    29    89 1   
    72    30    90 1   
    73    30    91 1   
    74    31    32 ar  
    75    31    92 1   
    76    32    93 1   
    77    33    34 1   
    78    33    48 1   
    79    33    52 2   
    80    34    35 1   
    81    34    94 1   
    82    34    95 1   
    83    35    36 1   
    84    35    39 1   
    85    35    40 1   
    86    36    37 1   
    87    36    96 1   
    88    36    97 1   
    89    37    38 1   
    90    37    98 1   
    91    37    99 1   
    92    38    39 1   
    93    38   100 1   
    94    38   101 1   
    95    39   102 1   
    96    39   103 1   
    97    40    41 1   
    98    40   104 1   
    99    40   105 1   
   100    41    53 2   
   101    42    44 1   
   102    42    49 1   
   103    42    55 2   
   104    43    54 2   
   105    44    45 1   
   106    44    48 1   
   107    44   106 1   
   108    45   107 1   
   109    45   108 1   
   110    46   109 1   
   111    47   110 1   
   112    47   114 1   
   113    48   111 1   
   114    49   112 1   
   115    51   114 2   
   116    67   113 1   
   117    68   113 1   
   118    69   113 1   
@<TRIPOS>SUBSTRUCTURE
     1 UTF         1 TEMP              0 ****  ****    0 ROOT
