@<TRIPOS>MOLECULE
UTF
  114   118     1     0     0
SMALL
No Charge or Current Charge


@<TRIPOS>ATOM
      1 N          -20.0510    -7.1800   -21.4150 ns         1 UTF      -0.449900
      2 CA         -20.1880    -5.9140   -22.1780 c3         1 UTF      -0.045300
      3 C          -19.7590    -4.6750   -21.3270 c          1 UTF       0.718000
      4 OXT        -19.8750    -4.7240   -20.1080 o          1 UTF      -0.723000
      5 CB         -21.6050    -5.7740   -22.7920 c3         1 UTF      -0.060400
      6 CG         -22.7110    -5.3450   -21.7930 c3         1 UTF      -0.081400
      7 CD         -24.1340    -5.3510   -22.4020 c3         1 UTF      -0.098400
      8 CE         -24.7450    -6.7570   -22.5740 c3         1 UTF       0.102000
      9 NZ         -25.0870    -7.3650   -21.2860 ns         1 UTF      -0.486900
     10 O          -19.2170    -3.7450   -21.9070 o          1 UTF      -0.723000
     11 C10        -21.1420   -10.3100   -16.7120 ca         1 UTF      -0.080300
     12 C11        -19.9070    -9.7470   -17.0810 ca         1 UTF      -0.097500
     13 C12        -18.7540   -10.5470   -17.1450 ca         1 UTF      -0.121500
     14 C13        -18.8130   -11.9170   -16.8320 ca         1 UTF      -0.042000
     15 C15        -17.3170   -13.9990   -16.6740 c          1 UTF       0.598100
     16 C17        -15.9720   -14.4960   -17.2830 c3         1 UTF       0.040700
     17 C2         -26.4670    -7.9840   -19.2910 c3         1 UTF       0.017700
     18 C22        -13.6280   -16.5550   -14.9740 c3         1 UTF      -0.106100
     19 C23        -13.5600   -16.0030   -13.5540 ca         1 UTF      -0.079300
     20 C24        -14.7220   -15.9440   -12.7590 ca         1 UTF      -0.091500
     21 C25        -14.6610   -15.4290   -11.4520 ca         1 UTF      -0.110000
     22 C26        -13.4400   -14.9700   -10.9330 ca         1 UTF      -0.107000
     23 C27        -12.2780   -15.0240   -11.7210 ca         1 UTF      -0.110000
     24 C28        -12.3380   -15.5390   -13.0280 ca         1 UTF      -0.091500
     25 C29        -16.1230   -15.1300   -18.7160 c6         1 UTF      -0.072700
     26 C30        -14.7390   -15.4580   -19.3560 c6         1 UTF      -0.073400
     27 C31        -14.8810   -16.0850   -20.7640 c6         1 UTF      -0.074400
     28 C32        -15.7010   -15.1730   -21.7050 c6         1 UTF      -0.075400
     29 C33        -17.0890   -14.8670   -21.0980 c6         1 UTF      -0.074400
     30 C34        -16.9600   -14.2400   -19.6890 c6         1 UTF      -0.073400
     31 C35        -20.0470   -12.4750   -16.4340 ca         1 UTF      -0.121500
     32 C36        -21.2000   -11.6750   -16.3720 ca         1 UTF      -0.097500
     33 C38        -22.3140    -9.5630   -19.8590 c          1 UTF       0.590100
     34 C40        -21.8620   -10.2200   -21.1710 c3         1 UTF      -0.151400
     35 C41        -20.3620   -10.6980   -21.1710 c5         1 UTF      -0.024000
     36 C42        -20.0850   -11.8710   -20.1800 c5         1 UTF      -0.081400
     37 C43        -20.7610   -13.1070   -20.8380 c5         1 UTF      -0.081400
     38 C44        -20.6830   -12.8270   -22.3700 c5         1 UTF      -0.081400
     39 C45        -19.9640   -11.4510   -22.4820 c5         1 UTF      -0.081400
     40 C46        -19.4060    -9.4940   -20.8790 c3         1 UTF      -0.157400
     41 C47        -19.4920    -8.3440   -21.8950 c          1 UTF       0.595100
     42 C5         -24.7460    -9.0190   -17.7280 c          1 UTF       0.607100
     43 C50        -26.3160    -7.2540   -20.6630 c          1 UTF       0.590100
     44 C7         -23.5250    -9.9910   -17.6510 c3         1 UTF       0.046700
     45 C9         -22.4070    -9.4550   -16.7100 c3         1 UTF      -0.038100
     46 N14        -17.6330   -12.6880   -17.0090 ns         1 UTF      -0.142000
     47 N19        -15.3450   -15.4600   -16.3480 ns         1 UTF      -0.495900
     48 N37        -23.0210   -10.3810   -19.0000 ns         1 UTF      -0.520900
     49 N4         -25.3030    -8.8490   -18.9820 ns         1 UTF      -0.508900
     50 O16        -18.0160   -14.7130   -15.9580 o          1 UTF      -0.587100
     51 O21        -13.2240   -14.6190   -16.3710 o          1 UTF      -0.591100
     52 O39        -22.1330    -8.3790   -19.6250 o          1 UTF      -0.583100
     53 O48        -19.0360    -8.4300   -23.0280 o          1 UTF      -0.656100
     54 O51        -27.2430    -6.6460   -21.1850 o          1 UTF      -0.624100
     55 O6         -25.1660    -8.4040   -16.7560 o          1 UTF      -0.570100
     56 H1         -20.4310    -7.2140   -20.4740 hn         1 UTF       0.321500
     57 H2         -19.4780    -5.9560   -23.0130 h1         1 UTF       0.065700
     58 H4         -21.5600    -5.0270   -23.5940 hc         1 UTF       0.023700
     59 H5         -21.8760    -6.7220   -23.2700 hc         1 UTF       0.023700
     60 H6         -22.6850    -5.9890   -20.9060 hc         1 UTF       0.057700
     61 H7         -22.4940    -4.3280   -21.4430 hc         1 UTF       0.057700
     62 H8         -24.8000    -4.7520   -21.7680 hc         1 UTF       0.045200
     63 H9         -24.1080    -4.8510   -23.3780 hc         1 UTF       0.045200
     64 H10        -25.6520    -6.6850   -23.1890 h1         1 UTF       0.045200
     65 H11        -24.0430    -7.4150   -23.1020 h1         1 UTF       0.045200
     66 H12        -24.3490    -7.8090   -20.7530 hn         1 UTF       0.326500
     67 H13        -27.8570    -9.2820   -18.2120 hc         1 UTF       0.043367
     68 H14        -28.6470    -8.1770   -19.3520 hc         1 UTF       0.043367
     69 H15        -27.7780    -9.6040   -19.9590 hc         1 UTF       0.043367
     70 H16        -19.8420    -8.6940   -17.3450 ha         1 UTF       0.114000
     71 H17        -17.8140   -10.1000   -17.4620 ha         1 UTF       0.123500
     72 H18        -15.3230   -13.6140   -17.3700 h1         1 UTF       0.068700
     73 H19        -26.5110    -7.1820   -18.5420 h1         1 UTF       0.108700
     74 H20        -14.3690   -17.3630   -15.0060 hc         1 UTF       0.062200
     75 H21        -12.6480   -16.9530   -15.2630 hc         1 UTF       0.062200
     76 H22        -15.6730   -16.2960   -13.1520 ha         1 UTF       0.114000
     77 H23        -15.5620   -15.3870   -10.8430 ha         1 UTF       0.112000
     78 H24        -13.3930   -14.5710    -9.9220 ha         1 UTF       0.110000
     79 H25        -11.3320   -14.6670   -11.3210 ha         1 UTF       0.112000
     80 H26        -11.4340   -15.5730   -13.6330 ha         1 UTF       0.114000
     81 H27        -16.6690   -16.0740   -18.5770 hc         1 UTF       0.065700
     82 H28        -14.1780   -16.1550   -18.7190 hc         1 UTF       0.042700
     83 H29        -14.1340   -14.5430   -19.4220 hc         1 UTF       0.042700
     84 H30        -15.3660   -17.0680   -20.6840 hc         1 UTF       0.043950
     85 H31        -13.8860   -16.2640   -21.1940 hc         1 UTF       0.043950
     86 H32        -15.8200   -15.6560   -22.6850 hc         1 UTF       0.041200
     87 H33        -15.1570   -14.2350   -21.8820 hc         1 UTF       0.041200
     88 H34        -17.6420   -14.1850   -21.7580 hc         1 UTF       0.043950
     89 H35        -17.6800   -15.7910   -21.0390 hc         1 UTF       0.043950
     90 H36        -16.5050   -13.2430   -19.7720 hc         1 UTF       0.042700
     91 H37        -17.9730   -14.0960   -19.2930 hc         1 UTF       0.042700
     92 H38        -20.1410   -13.5320   -16.2020 ha         1 UTF       0.123500
     93 H39        -22.1470   -12.1250   -16.0800 ha         1 UTF       0.114000
     94 H40        -22.0080    -9.4950   -21.9800 hc         1 UTF       0.064700
     95 H41        -22.5140   -11.0790   -21.3550 hc         1 UTF       0.064700
     96 H42        -19.0090   -12.0410   -20.0570 hc         1 UTF       0.053950
     97 H43        -20.4840   -11.6800   -19.1810 hc         1 UTF       0.053950
     98 H44        -21.8020   -13.2140   -20.5120 hc         1 UTF       0.034950
     99 H45        -20.2510   -14.0370   -20.5640 hc         1 UTF       0.034950
    100 H46        -21.6840   -12.7920   -22.8140 hc         1 UTF       0.034950
    101 H47        -20.1310   -13.6110   -22.9020 hc         1 UTF       0.034950
    102 H48        -18.8780   -11.5920   -22.5480 hc         1 UTF       0.053950
    103 H49        -20.2640   -10.9100   -23.3860 hc         1 UTF       0.053950
    104 H50        -18.3710    -9.8550   -20.8920 hc         1 UTF       0.063700
    105 H51        -19.6090    -9.1060   -19.8760 hc         1 UTF       0.063700
    106 H52        -23.9190   -10.9110   -17.2020 h1         1 UTF       0.047700
    107 H53        -22.1680    -8.4230   -16.9920 hc         1 UTF       0.081200
    108 H54        -22.8030    -9.3960   -15.6890 hc         1 UTF       0.081200
    109 H55        -16.9180   -12.2140   -17.5460 hn         1 UTF       0.153000
    110 H56        -15.9350   -16.1700   -15.9290 hn         1 UTF       0.320500
    111 H57        -23.1140   -11.3510   -19.2810 hn         1 UTF       0.317500
    112 H58        -24.9370    -9.4560   -19.7070 hn         1 UTF       0.306500
    113 C1         -27.7670    -8.8140   -19.1990 c3         1 UTF      -0.101100
    114 C20        -14.0200   -15.4540   -15.9650 c          1 UTF       0.600100
@<TRIPOS>BOND
     1     1     2 1   
     2     1    41 1   
     3     1    56 1   
     4     2     3 1   
     5     2     5 1   
     6     2    57 1   
     7     3     4 1   
     8     3    10 1   
     9     5     6 1   
    10     5    58 1   
    11     5    59 1   
    12     6     7 1   
    13     6    60 1   
    14     6    61 1   
    15     7     8 1   
    16     7    62 1   
    17     7    63 1   
    18     8     9 1   
    19     8    64 1   
    20     8    65 1   
    21     9    43 1   
    22     9    66 1   
    23    11    12 ar  
    24    11    32 ar  
    25    11    45 1   
    26    12    13 ar  
    27    12    70 1   
    28    13    14 ar  
    29    13    71 1   
    30    14    31 ar  
    31    14    46 1   
    32    15    16 1   
    33    15    46 1   
    34    15    50 2   
    35    16    25 1   
    36    16    47 1   
    37    16    72 1   
    38    17    43 1   
    39    17    49 1   
    40    17    73 1   
    41    17   113 1   
    42    18    19 1   
    43    18    74 1   
    44    18    75 1   
    45    18   114 1   
    46    19    20 ar  
    47    19    24 ar  
    48    20    21 ar  
    49    20    76 1   
    50    21    22 ar  
    51    21    77 1   
    52    22    23 ar  
    53    22    78 1   
    54    23    24 ar  
    55    23    79 1   
    56    24    80 1   
    57    25    26 1   
    58    25    30 1   
    59    25    81 1   
    60    26    27 1   
    61    26    82 1   
    62    26    83 1   
    63    27    28 1   
    64    27    84 1   
    65    27    85 1   
    66    28    29 1   
    67    28    86 1   
    68    28    87 1   
    69    29    30 1   
    70    29    88 1   
    71    29    89 1   
    72    30    90 1   
    73    30    91 1   
    74    31    32 ar  
    75    31    92 1   
    76    32    93 1   
    77    33    34 1   
    78    33    48 1   
    79    33    52 2   
    80    34    35 1   
    81    34    94 1   
    82    34    95 1   
    83    35    36 1   
    84    35    39 1   
    85    35    40 1   
    86    36    37 1   
    87    36    96 1   
    88    36    97 1   
    89    37    38 1   
    90    37    98 1   
    91    37    99 1   
    92    38    39 1   
    93    38   100 1   
    94    38   101 1   
    95    39   102 1   
    96    39   103 1   
    97    40    41 1   
    98    40   104 1   
    99    40   105 1   
   100    41    53 2   
   101    42    44 1   
   102    42    49 1   
   103    42    55 2   
   104    43    54 2   
   105    44    45 1   
   106    44    48 1   
   107    44   106 1   
   108    45   107 1   
   109    45   108 1   
   110    46   109 1   
   111    47   110 1   
   112    47   114 1   
   113    48   111 1   
   114    49   112 1   
   115    51   114 2   
   116    67   113 1   
   117    68   113 1   
   118    69   113 1   
@<TRIPOS>SUBSTRUCTURE
     1 UTF         1 TEMP              0 ****  ****    0 ROOT
