@<TRIPOS>MOLECULE
UTG
   28    29     1     0     0
SMALL
bcc


@<TRIPOS>ATOM
      1 C4          14.7340    -8.7800    35.1600 ca         1 UTG      -0.113000
      2 C5          14.0550    -8.2260    34.0810 ca         1 UTG       0.003600
      3 C6          13.4810    -9.6070    32.1370 cs         1 UTG       0.629400
      4 N1          12.4420   -10.0820    32.8270 ns         1 UTG      -0.508900
      5 C7          11.5210   -11.0940    32.3580 c3         1 UTG       0.075700
      6 C8          11.8070   -12.4340    32.9330 cc         1 UTG       0.196000
      7 C9          11.0890   -13.2520    33.7400 cd         1 UTG      -0.253300
      8 C10         11.8940   -14.4130    33.9560 cd         1 UTG      -0.277300
      9 C11         13.0380   -14.2020    33.2650 cc         1 UTG       0.241600
     10 S           13.8370   -10.0380    30.5480 s          1 UTG      -0.661400
     11 N           14.2720    -8.7200    32.7750 ns         1 UTG      -0.450100
     12 C3          14.5380    -8.2930    36.4430 ca         1 UTG      -0.123000
     13 C2          13.6500    -7.2480    36.6540 ca         1 UTG      -0.110000
     14 C1          12.9620    -6.6840    35.5900 ca         1 UTG      -0.120000
     15 C           13.1680    -7.1750    34.3100 ca         1 UTG       0.018400
     16 CL          12.3170    -6.4770    32.9820 cl         1 UTG      -0.077400
     17 O           12.9950   -13.0070    32.6410 os         1 UTG      -0.302800
     18 H1          15.4190    -9.5980    34.9800 ha         1 UTG       0.152000
     19 H2          12.3380    -9.8170    33.7970 hn         1 UTG       0.314500
     20 H3          10.5090   -10.8060    32.6440 h1         1 UTG       0.091700
     21 H4          11.5640   -11.1110    31.2690 h1         1 UTG       0.091700
     22 H5          10.1070   -13.0510    34.1380 ha         1 UTG       0.157000
     23 H6          11.6520   -15.2810    34.5460 ha         1 UTG       0.161000
     24 H7          13.9340   -14.7870    33.1330 h4         1 UTG       0.055100
     25 H8          15.0510    -8.3590    32.2450 hn         1 UTG       0.367500
     26 H9          15.0730    -8.7320    37.2740 ha         1 UTG       0.145000
     27 H10         13.4890    -6.8630    37.6530 ha         1 UTG       0.143000
     28 H11         12.2710    -5.8680    35.7540 ha         1 UTG       0.154000
@<TRIPOS>BOND
     1     1     2 ar  
     2     1    12 ar  
     3     1    18 1   
     4     2    11 1   
     5     2    15 ar  
     6     3     4 1   
     7     3    10 2   
     8     3    11 1   
     9     4     5 1   
    10     4    19 1   
    11     5     6 1   
    12     5    20 1   
    13     5    21 1   
    14     6     7 2   
    15     6    17 1   
    16     7     8 1   
    17     7    22 1   
    18     8     9 2   
    19     8    23 1   
    20     9    17 1   
    21     9    24 1   
    22    11    25 1   
    23    12    13 ar  
    24    12    26 1   
    25    13    14 ar  
    26    13    27 1   
    27    14    15 ar  
    28    14    28 1   
    29    15    16 1   
@<TRIPOS>SUBSTRUCTURE
     1 UTG         1 TEMP              0 ****  ****    0 ROOT
