@<TRIPOS>MOLECULE
UTG
   28    29     1     0     0
SMALL
No Charge or Current Charge


@<TRIPOS>ATOM
      1 C4          15.1010    -7.8930    34.9100 ca         1 UTG      -0.095000
      2 C5          13.9310    -8.1100    34.1590 ca         1 UTG       0.003600
      3 C6          13.6590    -9.1600    31.8530 cs         1 UTG       0.495400
      4 N1          13.2000   -10.3000    32.4380 ns         1 UTG      -0.441900
      5 C7          12.7190   -11.4990    31.7480 c3         1 UTG       0.075700
      6 C8          12.0670   -12.4750    32.6870 cc         1 UTG       0.086300
      7 C9          10.9360   -12.3650    33.4500 cd         1 UTG      -0.170000
      8 C10         10.7970   -13.5790    34.1540 cd         1 UTG      -0.194000
      9 C11         11.8470   -14.3790    33.7940 cc         1 UTG       0.131900
     10 S           13.8450    -8.9640    30.2070 s          1 UTG      -0.661400
     11 N           14.0500    -8.2080    32.7480 ns         1 UTG      -0.383100
     12 C3          15.0420    -7.7920    36.3110 ca         1 UTG      -0.105000
     13 C2          13.8080    -7.8960    36.9720 ca         1 UTG      -0.092000
     14 C1          12.6300    -8.0910    36.2300 ca         1 UTG      -0.102000
     15 C           12.6840    -8.1940    34.8290 ca         1 UTG       0.110000
     16 Cl          11.1640    -8.3640    33.9480 cl         1 UTG      -0.169000
     17 O           12.6430   -13.7100    32.8880 os         1 UTG      -0.214000
     18 H1          16.0640    -7.8150    34.4080 ha         1 UTG       0.134000
     19 H2          13.1680   -10.2960    33.4500 hn         1 UTG       0.314500
     20 H3          11.9910   -11.2040    30.9800 h1         1 UTG       0.091700
     21 H4          13.5650   -11.9850    31.2440 h1         1 UTG       0.091700
     22 H5          10.2780   -11.5030    33.4990 ha         1 UTG       0.139000
     23 H6          10.0080   -13.8380    34.8530 ha         1 UTG       0.143000
     24 H7          12.1360   -15.3800    34.0850 h4         1 UTG       0.055100
     25 H8          14.4860    -7.4040    32.3090 hn         1 UTG       0.367500
     26 H9          15.9540    -7.6330    36.8840 ha         1 UTG       0.127000
     27 H10         13.7610    -7.8160    38.0560 ha         1 UTG       0.125000
     28 H11         11.6720    -8.1520    36.7400 ha         1 UTG       0.136000
@<TRIPOS>BOND
     1     1     2 ar  
     2     1    12 ar  
     3     1    18 1   
     4     2    11 1   
     5     2    15 ar  
     6     3     4 1   
     7     3    10 2   
     8     3    11 1   
     9     4     5 1   
    10     4    19 1   
    11     5     6 1   
    12     5    20 1   
    13     5    21 1   
    14     6     7 2   
    15     6    17 1   
    16     7     8 1   
    17     7    22 1   
    18     8     9 2   
    19     8    23 1   
    20     9    17 1   
    21     9    24 1   
    22    11    25 1   
    23    12    13 ar  
    24    12    26 1   
    25    13    14 ar  
    26    13    27 1   
    27    14    15 ar  
    28    14    28 1   
    29    15    16 1   
@<TRIPOS>SUBSTRUCTURE
     1 UTG         1 TEMP              0 ****  ****    0 ROOT
