@<TRIPOS>MOLECULE
UTH
   54    57     1     0     0
SMALL
bcc


@<TRIPOS>ATOM
      1 C01          5.0040     2.9730    -0.3300 c3         1 UTH      -0.135400
      2 C02          5.2230     1.5100    -0.2570 cc         1 UTH       0.390600
      3 N01          6.4360     1.0490    -0.2360 nd         1 UTH      -0.398300
      4 O01          6.3380    -0.3220    -0.1990 os         1 UTH      -0.142100
      5 C03          5.0450    -0.6810    -0.2050 cd         1 UTH       0.299000
      6 C04          4.7460    -2.1360    -0.2440 c3         1 UTH      -0.134400
      7 C05          4.2700     0.4380    -0.2140 cc         1 UTH      -0.387100
      8 C06          2.8110     0.5380    -0.2240 ca         1 UTH       0.521800
      9 C07          2.0090    -0.4970     0.2960 ca         1 UTH      -0.306300
     10 C08          0.6490    -0.3670     0.2090 ca         1 UTH      -0.039000
     11 C09          0.0790     0.7850    -0.3570 ca         1 UTH      -0.267300
     12 C10         -1.3360     1.0160    -0.4780 ca         1 UTH       0.260600
     13 N02         -2.2830     0.0970    -0.2100 nu         1 UTH      -0.696000
     14 C11         -2.1580    -1.2930    -0.4000 ca         1 UTH       0.173600
     15 C12         -1.6530    -1.7440    -1.6210 ca         1 UTH      -0.160000
     16 C13         -1.5150    -3.0930    -1.8910 ca         1 UTH      -0.123000
     17 C14         -1.9100    -4.0110    -0.9320 ca         1 UTH      -0.162000
     18 C15         -2.4340    -3.5650     0.2730 ca         1 UTH      -0.128000
     19 C16         -2.5680    -2.2090     0.5860 ca         1 UTH      -0.075300
     20 C17         -3.1360    -1.7660     1.9400 c3         1 UTH       0.014300
     21 C18         -3.4860    -2.9680     2.8290 c3         1 UTH      -0.085100
     22 C19         -2.1060    -0.9350     2.7200 c3         1 UTH      -0.085100
     23 C20         -4.4260    -0.9590     1.7410 c3         1 UTH      -0.085100
     24 C21         -1.7340     2.3180    -0.8270 ca         1 UTH      -0.390900
     25 C22         -0.7410     3.2460    -1.1520 ca         1 UTH       0.497200
     26 N1           0.5570     3.0360    -1.1550 nb         1 UTH      -0.730000
     27 C23          0.9710     1.8250    -0.7440 ca         1 UTH       0.680300
     28 C1          -3.1940     2.7220    -0.9260 c          1 UTH       0.946200
     29 O02         -3.4540     3.8950    -1.1990 o          1 UTH      -0.795800
     30 O1          -4.0420     1.8110    -0.6830 o          1 UTH      -0.795800
     31 N51          2.3080     1.6510    -0.7070 nb         1 UTH      -0.681000
     32 H011         4.3470     3.2180    -1.1610 hc         1 UTH       0.064367
     33 H012         4.5040     3.3320     0.5700 hc         1 UTH       0.064367
     34 H013         5.9540     3.4950    -0.4280 hc         1 UTH       0.064367
     35 H041         5.5430    -2.6920    -0.7360 hc         1 UTH       0.058367
     36 H042         4.6190    -2.5550     0.7560 hc         1 UTH       0.058367
     37 H043         3.8180    -2.3200    -0.7840 hc         1 UTH       0.058367
     38 H07          2.4380    -1.3570     0.7870 ha         1 UTH       0.126000
     39 H08          0.0260    -1.1510     0.6110 ha         1 UTH       0.140000
     40 H02         -3.2200     0.5890    -0.3300 hn         1 UTH       0.533800
     41 H12         -1.3780    -1.0120    -2.3700 ha         1 UTH       0.144000
     42 H13         -1.1240    -3.4200    -2.8450 ha         1 UTH       0.122000
     43 H14         -1.8260    -5.0740    -1.1190 ha         1 UTH       0.116000
     44 H15         -2.7380    -4.3120     0.9910 ha         1 UTH       0.119000
     45 H181        -2.6150    -3.5880     3.0500 hc         1 UTH       0.035478
     46 H182        -3.8740    -2.6060     3.7820 hc         1 UTH       0.035478
     47 H183        -4.2570    -3.6030     2.3880 hc         1 UTH       0.035478
     48 H191        -1.8210    -0.0230     2.2020 hc         1 UTH       0.035478
     49 H192        -2.5220    -0.6450     3.6870 hc         1 UTH       0.035478
     50 H193        -1.2040    -1.5180     2.9160 hc         1 UTH       0.035478
     51 H201        -5.1510    -1.5160     1.1450 hc         1 UTH       0.035478
     52 H202        -4.8860    -0.7510     2.7100 hc         1 UTH       0.035478
     53 H203        -4.2560     0.0030     1.2570 hc         1 UTH       0.035478
     54 H22         -1.0680     4.2340    -1.4570 h4         1 UTH       0.035100
@<TRIPOS>BOND
     1     1     2 1   
     2     1    32 1   
     3     1    33 1   
     4     1    34 1   
     5     2     3 2   
     6     2     7 1   
     7     3     4 1   
     8     4     5 1   
     9     5     6 1   
    10     5     7 2   
    11     6    35 1   
    12     6    36 1   
    13     6    37 1   
    14     7     8 1   
    15     8     9 ar  
    16     8    31 ar  
    17     9    10 ar  
    18     9    38 1   
    19    10    11 ar  
    20    10    39 1   
    21    11    12 ar  
    22    11    27 ar  
    23    12    13 1   
    24    12    24 ar  
    25    13    14 1   
    26    13    40 1   
    27    14    15 ar  
    28    14    19 ar  
    29    15    16 ar  
    30    15    41 1   
    31    16    17 ar  
    32    16    42 1   
    33    17    18 ar  
    34    17    43 1   
    35    18    19 ar  
    36    18    44 1   
    37    19    20 1   
    38    20    21 1   
    39    20    22 1   
    40    20    23 1   
    41    21    45 1   
    42    21    46 1   
    43    21    47 1   
    44    22    48 1   
    45    22    49 1   
    46    22    50 1   
    47    23    51 1   
    48    23    52 1   
    49    23    53 1   
    50    24    25 ar  
    51    24    28 1   
    52    25    26 ar  
    53    25    54 1   
    54    26    27 ar  
    55    27    31 ar  
    56    28    29 1   
    57    28    30 1   
@<TRIPOS>SUBSTRUCTURE
     1 UTH         1 TEMP              0 ****  ****    0 ROOT
