@<TRIPOS>MOLECULE
UTH
   54    57     1     0     0
SMALL
No Charge or Current Charge


@<TRIPOS>ATOM
      1 C01          5.1480     3.1050     0.0570 c3         1 UTH      -0.135400
      2 C02          5.4620     1.6540    -0.1770 cc         1 UTH       0.325300
      3 N01          6.6950     1.2090    -0.3490 nd         1 UTH      -0.398300
      4 O01          6.5260    -0.2040    -0.5540 os         1 UTH      -0.097700
      5 C03          5.1880    -0.4990    -0.4960 cd         1 UTH       0.189300
      6 C04          4.7570    -1.9070    -0.8150 c3         1 UTH      -0.134400
      7 C05          4.4860     0.6360    -0.2190 cc         1 UTH      -0.256500
      8 C06          3.0240     0.7050    -0.1980 ca         1 UTH       0.193500
      9 C07          2.2530    -0.3260     0.3600 ca         1 UTH      -0.223000
     10 C08          0.8580    -0.2470     0.2980 ca         1 UTH      -0.021000
     11 C09          0.2590     0.8610    -0.3450 ca         1 UTH      -0.202000
     12 C10         -1.1500     0.9960    -0.4490 ca         1 UTH       0.399000
     13 N02         -2.0230     0.0190     0.0090 nu         1 UTH      -1.028000
     14 C11         -2.0990    -1.3590    -0.2170 ca         1 UTH       0.312000
     15 C12         -1.5220    -1.8340    -1.4120 ca         1 UTH      -0.142000
     16 C13         -1.5620    -3.1900    -1.7500 ca         1 UTH      -0.105000
     17 C14         -2.1870    -4.0920    -0.8870 ca         1 UTH      -0.144000
     18 C15         -2.7630    -3.6430     0.3110 ca         1 UTH      -0.110000
     19 C16         -2.7370    -2.2690     0.6890 ca         1 UTH      -0.075300
     20 C17         -3.3450    -1.8190     2.0670 c3         1 UTH       0.014300
     21 C18         -3.9780    -2.9990     2.8660 c3         1 UTH      -0.085100
     22 C19         -2.2300    -1.2240     2.9740 c3         1 UTH      -0.085100
     23 C20         -4.4780    -0.7740     1.8620 c3         1 UTH      -0.085100
     24 C21         -1.6750     2.1520    -1.0400 ca         1 UTH      -0.325600
     25 C22         -0.7720     3.0990    -1.5380 ca         1 UTH       0.168900
     26 N1           0.5630     2.9620    -1.4660 nb         1 UTH      -0.204000
     27 C23          1.1020     1.8750    -0.8800 ca         1 UTH       0.089000
     28 C1          -3.1410     2.4020    -1.1900 c          1 UTH       0.735600
     29 O02         -3.5130     3.0490    -2.1560 o          1 UTH      -0.690500
     30 O1          -3.8960     1.9800    -0.3270 o          1 UTH      -0.690500
     31 N51          2.4470     1.7610    -0.8050 nb         1 UTH      -0.155000
     32 H011         4.7480     3.5670    -0.8530 hc         1 UTH       0.064367
     33 H012         4.4050     3.2190     0.8560 hc         1 UTH       0.064367
     34 H013         6.0450     3.6610     0.3530 hc         1 UTH       0.064367
     35 H041         5.5230    -2.4290    -1.4000 hc         1 UTH       0.058367
     36 H042         4.5880    -2.4830     0.1020 hc         1 UTH       0.058367
     37 H043         3.8320    -1.9150    -1.4030 hc         1 UTH       0.058367
     38 H07          2.7220    -1.1670     0.8610 ha         1 UTH       0.108000
     39 H08          0.2670    -1.0330     0.7580 ha         1 UTH       0.122000
     40 H02         -2.9400     0.4410     0.2040 hn         1 UTH       0.589000
     41 H12         -1.0440    -1.1400    -2.0970 ha         1 UTH       0.126000
     42 H13         -1.1140    -3.5390    -2.6780 ha         1 UTH       0.104000
     43 H14         -2.2240    -5.1490    -1.1430 ha         1 UTH       0.098000
     44 H15         -3.2220    -4.4020     0.9340 ha         1 UTH       0.101000
     45 H181        -3.2320    -3.7670     3.1020 hc         1 UTH       0.035478
     46 H182        -4.3930    -2.6520     3.8210 hc         1 UTH       0.035478
     47 H183        -4.7990    -3.4630     2.3060 hc         1 UTH       0.035478
     48 H191        -1.8110    -0.2980     2.5690 hc         1 UTH       0.035478
     49 H192        -2.6210    -0.9880     3.9720 hc         1 UTH       0.035478
     50 H193        -1.4090    -1.9400     3.0950 hc         1 UTH       0.035478
     51 H201        -5.1770    -1.1060     1.0850 hc         1 UTH       0.035478
     52 H202        -5.0500    -0.6260     2.7870 hc         1 UTH       0.035478
     53 H203        -4.0890     0.2070     1.5850 hc         1 UTH       0.035478
     54 H22         -1.1210     4.0140    -2.0150 h4         1 UTH       0.035100
@<TRIPOS>BOND
     1     1     2 1   
     2     1    32 1   
     3     1    33 1   
     4     1    34 1   
     5     2     3 2   
     6     2     7 1   
     7     3     4 1   
     8     4     5 1   
     9     5     6 1   
    10     5     7 2   
    11     6    35 1   
    12     6    36 1   
    13     6    37 1   
    14     7     8 1   
    15     8     9 ar  
    16     8    31 ar  
    17     9    10 ar  
    18     9    38 1   
    19    10    11 ar  
    20    10    39 1   
    21    11    12 ar  
    22    11    27 ar  
    23    12    13 1   
    24    12    24 ar  
    25    13    14 1   
    26    13    40 1   
    27    14    15 ar  
    28    14    19 ar  
    29    15    16 ar  
    30    15    41 1   
    31    16    17 ar  
    32    16    42 1   
    33    17    18 ar  
    34    17    43 1   
    35    18    19 ar  
    36    18    44 1   
    37    19    20 1   
    38    20    21 1   
    39    20    22 1   
    40    20    23 1   
    41    21    45 1   
    42    21    46 1   
    43    21    47 1   
    44    22    48 1   
    45    22    49 1   
    46    22    50 1   
    47    23    51 1   
    48    23    52 1   
    49    23    53 1   
    50    24    25 ar  
    51    24    28 1   
    52    25    26 ar  
    53    25    54 1   
    54    26    27 ar  
    55    27    31 ar  
    56    28    29 1   
    57    28    30 1   
@<TRIPOS>SUBSTRUCTURE
     1 UTH         1 TEMP              0 ****  ****    0 ROOT
