@<TRIPOS>MOLECULE
UTI
   73    76     1     0     0
SMALL
abcg2


@<TRIPOS>ATOM
      1 C11        209.8010   188.0900    95.1020 ca         1 UTI       0.621800
      2 C12        209.7540   186.9930    95.9590 ca         1 UTI      -0.218500
      3 C21        214.9790   186.3320    96.8710 ca         1 UTI      -0.110000
      4 C22        213.8900   185.6780    96.3160 ca         1 UTI      -0.118000
      5 C31        211.5540   181.7770   102.8560 ca         1 UTI      -0.096000
      6 C32        211.9130   180.5140   102.4640 ca         1 UTI      -0.069000
      7 C23        212.6940   185.5760    97.0120 ca         1 UTI      -0.081000
      8 C33        212.2200   180.2640   101.1140 ca         1 UTI      -0.033900
      9 C34        212.1730   181.2610   100.1760 ca         1 UTI      -0.045000
     10 C01        205.0630   186.3160    98.7920 c3         1 UTI       0.149100
     11 C03        206.3000   187.5800   100.3880 c3         1 UTI       0.149100
     12 C05        208.7750   186.3190    99.2760 c3         1 UTI      -0.106400
     13 C06        209.9550   186.0820    98.3160 c3         1 UTI       0.243300
     14 C07        210.0020   187.2150    97.3040 ca         1 UTI       0.020700
     15 C08        210.2670   188.5110    97.7350 ca         1 UTI      -0.218500
     16 C09        210.2790   189.5240    96.7840 ca         1 UTI       0.621800
     17 C17        211.2960   186.0660    99.1250 c3         1 UTI       0.022900
     18 C18        212.5520   186.1350    98.2810 ca         1 UTI      -0.104300
     19 C19        213.6680   186.7640    98.8170 ca         1 UTI       0.161000
     20 C20        214.8740   186.8870    98.1380 ca         1 UTI       0.062100
     21 C27        211.3720   184.8910   100.0760 ca         1 UTI      -0.140300
     22 C28        211.0750   185.0310   101.4730 ca         1 UTI       0.616300
     23 C30        211.4880   182.8280   101.9210 ca         1 UTI       0.328000
     24 C35        211.8050   182.5620   100.5730 ca         1 UTI      -0.122000
     25 C36        211.7410   183.6450    99.6620 ca         1 UTI      -0.037000
     26 F26        213.5930   187.2840   100.0530 f          1 UTI      -0.167000
     27 N02        206.3170   186.4320    99.5050 n3         1 UTI      -0.715600
     28 N10        210.0550   189.3220    95.4970 nb         1 UTI      -0.838000
     29 N29        211.1330   184.0660   102.3370 nb         1 UTI      -0.767000
     30 O13        209.5740   187.8560    93.8080 os         1 UTI      -0.459300
     31 O15        210.5320   190.7640    97.2090 os         1 UTI      -0.459300
     32 O24        215.8990   187.5570    98.7210 os         1 UTI      -0.345100
     33 O38        210.7260   186.2490   101.8740 os         1 UTI      -0.460300
     34 O40        209.7680   184.8820    97.6090 oh         1 UTI      -0.661000
     35 H1         209.5400   186.0120    95.5650 ha         1 UTI       0.147000
     36 H2         215.9090   186.4200    96.3230 ha         1 UTI       0.125000
     37 H3         213.9720   185.2410    95.3300 ha         1 UTI       0.120000
     38 H4         211.3150   181.9810   103.8920 ha         1 UTI       0.135000
     39 H5         211.9580   179.7160   103.1920 ha         1 UTI       0.132000
     40 H6         209.4420   188.5200    91.9170 h1         1 UTI       0.044700
     41 H7         208.8740   189.6970    93.1170 h1         1 UTI       0.044700
     42 H8         210.6120   189.4240    92.9000 h1         1 UTI       0.044700
     43 H9         211.8650   185.0560    96.5580 ha         1 UTI       0.138000
     44 H10        212.4090   181.0740    99.1360 ha         1 UTI       0.131000
     45 H11        204.2360   186.2440    99.5000 h1         1 UTI       0.030367
     46 H12        204.8570   187.1690    98.1250 h1         1 UTI       0.030367
     47 H13        205.0590   185.4110    98.1830 h1         1 UTI       0.030367
     48 H14        205.4340   187.5240   101.0480 h1         1 UTI       0.030367
     49 H15        207.1880   187.6000   101.0200 h1         1 UTI       0.030367
     50 H16        206.2500   188.5390    99.8470 h1         1 UTI       0.030367
     51 H17        207.4180   187.3870    97.9690 h1         1 UTI       0.040700
     52 H18        207.3000   185.6340    97.8740 h1         1 UTI       0.040700
     53 H19        208.7040   185.4750    99.9700 hc         1 UTI       0.061200
     54 H20        208.9850   187.2010    99.8830 hc         1 UTI       0.061200
     55 H21        210.4580   188.7490    98.7730 ha         1 UTI       0.147000
     56 H22        210.7690   192.7200    96.8130 h1         1 UTI       0.044700
     57 H23        211.3130   191.6630    95.4940 h1         1 UTI       0.044700
     58 H24        209.5810   191.9280    95.7600 h1         1 UTI       0.044700
     59 H25        211.2730   186.9730    99.7280 hc         1 UTI       0.094700
     60 H26        217.7020   187.3850    99.6350 h1         1 UTI       0.037700
     61 H27        216.5840   186.0550    99.9990 h1         1 UTI       0.037700
     62 H28        217.3970   186.1300    98.4210 h1         1 UTI       0.037700
     63 H29        212.0140   183.4680    98.6280 ha         1 UTI       0.134000
     64 H30        210.1420   187.4940   103.3390 h1         1 UTI       0.050033
     65 H31        209.5650   185.8270   103.5540 h1         1 UTI       0.050033
     66 H32        211.2600   186.2280   103.8910 h1         1 UTI       0.050033
     67 H34        209.5190   184.1890    98.2310 ho         1 UTI       0.457000
     68 BR37       212.7070   178.5140   100.6020 br         1 UTI      -0.094100
     69 C14        209.6320   188.9440    92.9000 c3         1 UTI       0.162400
     70 C04        207.4310   186.4640    98.5730 c3         1 UTI       0.163800
     71 C16        210.5460   191.8140    96.2550 c3         1 UTI       0.162400
     72 C25        216.9430   186.7270    99.2160 c3         1 UTI       0.147900
     73 C39        210.4090   186.4450   103.2450 c3         1 UTI       0.158900
@<TRIPOS>BOND
     1     1     2 ar  
     2     1    28 ar  
     3     1    30 1   
     4     2    14 ar  
     5     2    35 1   
     6     3     4 ar  
     7     3    20 ar  
     8     3    36 1   
     9     4     7 ar  
    10     4    37 1   
    11     5     6 ar  
    12     5    23 ar  
    13     5    38 1   
    14     6     8 ar  
    15     6    39 1   
    16     7    18 ar  
    17     7    43 1   
    18     8     9 ar  
    19     8    68 1   
    20     9    24 ar  
    21     9    44 1   
    22    10    27 1   
    23    10    45 1   
    24    10    46 1   
    25    10    47 1   
    26    11    27 1   
    27    11    48 1   
    28    11    49 1   
    29    11    50 1   
    30    12    13 1   
    31    12    53 1   
    32    12    54 1   
    33    12    70 1   
    34    13    14 1   
    35    13    17 1   
    36    13    34 1   
    37    14    15 ar  
    38    15    16 ar  
    39    15    55 1   
    40    16    28 ar  
    41    16    31 1   
    42    17    18 1   
    43    17    21 1   
    44    17    59 1   
    45    18    19 ar  
    46    19    20 ar  
    47    19    26 1   
    48    20    32 1   
    49    21    22 ar  
    50    21    25 ar  
    51    22    29 ar  
    52    22    33 1   
    53    23    24 ar  
    54    23    29 ar  
    55    24    25 ar  
    56    25    63 1   
    57    27    70 1   
    58    30    69 1   
    59    31    71 1   
    60    32    72 1   
    61    33    73 1   
    62    34    67 1   
    63    40    69 1   
    64    41    69 1   
    65    42    69 1   
    66    51    70 1   
    67    52    70 1   
    68    56    71 1   
    69    57    71 1   
    70    58    71 1   
    71    60    72 1   
    72    61    72 1   
    73    62    72 1   
    74    64    73 1   
    75    65    73 1   
    76    66    73 1   
@<TRIPOS>SUBSTRUCTURE
     1 UTI         1 TEMP              0 ****  ****    0 ROOT
