@<TRIPOS>MOLECULE
UTI
   73    76     1     0     0
SMALL
No Charge or Current Charge


@<TRIPOS>ATOM
      1 C11        209.8690   187.9860    95.0720 ca         1 UTI       0.621800
      2 C12        209.7620   186.9380    95.9920 ca         1 UTI      -0.218500
      3 C21        215.0360   186.2480    97.0810 ca         1 UTI      -0.110000
      4 C22        213.9210   185.6500    96.4750 ca         1 UTI      -0.118000
      5 C31        211.4100   181.5540   102.9200 ca         1 UTI      -0.096000
      6 C32        211.8370   180.2840   102.4940 ca         1 UTI      -0.069000
      7 C23        212.7020   185.5510    97.1640 ca         1 UTI      -0.081000
      8 C33        212.2270   180.0910   101.1600 ca         1 UTI      -0.033900
      9 C34        212.1900   181.1620   100.2540 ca         1 UTI      -0.045000
     10 C01        204.8890   186.5620    98.7070 c3         1 UTI       0.149100
     11 C03        206.1810   187.7880   100.3930 c3         1 UTI       0.149100
     12 C05        208.6870   186.3350    99.3480 c3         1 UTI      -0.106400
     13 C06        209.9120   186.0510    98.4290 c3         1 UTI       0.243300
     14 C07        210.0130   187.1680    97.3590 ca         1 UTI       0.020700
     15 C08        210.3460   188.4890    97.7120 ca         1 UTI      -0.218500
     16 C09        210.4310   189.4800    96.7290 ca         1 UTI       0.621800
     17 C17        211.2440   185.9690    99.2740 c3         1 UTI       0.022900
     18 C18        212.5690   186.0590    98.4780 ca         1 UTI      -0.104300
     19 C19        213.7060   186.6470    99.0840 ca         1 UTI       0.161000
     20 C20        214.9360   186.7490    98.3970 ca         1 UTI       0.062100
     21 C27        211.2860   184.7660   100.2400 ca         1 UTI      -0.140300
     22 C28        210.9170   184.8870   101.6030 ca         1 UTI       0.616300
     23 C30        211.3660   182.6410   102.0280 ca         1 UTI       0.328000
     24 C35        211.7610   182.4330   100.6860 ca         1 UTI      -0.122000
     25 C36        211.7220   183.5070    99.7840 ca         1 UTI      -0.037000
     26 F26        213.6240   187.1200   100.3520 f          1 UTI      -0.167000
     27 N02        206.1520   186.6230    99.4750 n3         1 UTI      -0.715600
     28 N10        210.1980   189.2400    95.4270 nb         1 UTI      -0.838000
     29 N29        210.9540   183.8480   102.4670 nb         1 UTI      -0.767000
     30 O13        209.6170   187.6990    93.7520 os         1 UTI      -0.459300
     31 O15        210.7650   190.7490    97.1360 os         1 UTI      -0.459300
     32 O24        216.0110   187.3400    99.0410 os         1 UTI      -0.345100
     33 O38        210.4920   186.1140   102.0680 os         1 UTI      -0.460300
     34 O40        209.6710   184.7740    97.8140 oh         1 UTI      -0.661000
     35 H1         209.4870   185.9560    95.6240 ha         1 UTI       0.147000
     36 H2         215.9640   186.3080    96.5190 ha         1 UTI       0.125000
     37 H3         214.0020   185.2570    95.4640 ha         1 UTI       0.120000
     38 H4         211.1100   181.7000   103.9540 ha         1 UTI       0.135000
     39 H5         211.8650   179.4540   103.1970 ha         1 UTI       0.132000
     40 H6         209.4750   188.2920    91.7500 h1         1 UTI       0.044700
     41 H7         209.0000   189.5310    92.9300 h1         1 UTI       0.044700
     42 H8         210.7220   189.1360    92.6910 h1         1 UTI       0.044700
     43 H9         211.8690   185.0690    96.6610 ha         1 UTI       0.138000
     44 H10        212.4940   181.0050    99.2210 ha         1 UTI       0.131000
     45 H11        204.0230   186.5560    99.3810 h1         1 UTI       0.030367
     46 H12        204.7960   187.4270    98.0350 h1         1 UTI       0.030367
     47 H13        204.8480   185.6480    98.0990 h1         1 UTI       0.030367
     48 H14        205.2690   187.8210   101.0050 h1         1 UTI       0.030367
     49 H15        207.0330   187.7320   101.0820 h1         1 UTI       0.030367
     50 H16        206.2490   188.7290    99.8310 h1         1 UTI       0.030367
     51 H17        207.4120   187.4120    97.9580 h1         1 UTI       0.040700
     52 H18        207.2140   185.6600    97.9220 h1         1 UTI       0.040700
     53 H19        208.5660   185.5160   100.0660 hc         1 UTI       0.061200
     54 H20        208.8900   187.2380    99.9330 hc         1 UTI       0.061200
     55 H21        210.5410   188.7660    98.7420 ha         1 UTI       0.147000
     56 H22        211.1570   192.7600    96.7080 h1         1 UTI       0.044700
     57 H23        211.6580   191.6170    95.4450 h1         1 UTI       0.044700
     58 H24        209.9320   192.0010    95.6700 h1         1 UTI       0.044700
     59 H25        211.2230   186.8790    99.8820 hc         1 UTI       0.094700
     60 H26        218.0000   187.9770    99.1050 h1         1 UTI       0.037700
     61 H27        217.7180   186.5060    98.1520 h1         1 UTI       0.037700
     62 H28        217.2280   188.0970    97.5100 h1         1 UTI       0.037700
     63 H29        212.0260   183.3620    98.7490 ha         1 UTI       0.134000
     64 H30        209.7550   187.3370   103.5960 h1         1 UTI       0.050033
     65 H31        209.1940   185.6530   103.6520 h1         1 UTI       0.050033
     66 H32        210.8620   186.0570   104.1350 h1         1 UTI       0.050033
     67 H34        209.5730   184.1230    98.5400 ho         1 UTI       0.457000
     68 Br37       212.8090   178.3660   100.5750 br         1 UTI      -0.094100
     69 C14        209.7090   188.7150    92.7340 c3         1 UTI       0.162400
     70 C04        207.3440   186.5190    98.5950 c3         1 UTI       0.163800
     71 C16        210.8830   191.8310    96.1920 c3         1 UTI       0.162400
     72 C25        217.3000   187.4850    98.4180 c3         1 UTI       0.147900
     73 C39        210.0560   186.2950   103.4280 c3         1 UTI       0.158900
@<TRIPOS>BOND
     1     1     2 ar  
     2     1    28 ar  
     3     1    30 1   
     4     2    14 ar  
     5     2    35 1   
     6     3     4 ar  
     7     3    20 ar  
     8     3    36 1   
     9     4     7 ar  
    10     4    37 1   
    11     5     6 ar  
    12     5    23 ar  
    13     5    38 1   
    14     6     8 ar  
    15     6    39 1   
    16     7    18 ar  
    17     7    43 1   
    18     8     9 ar  
    19     8    68 1   
    20     9    24 ar  
    21     9    44 1   
    22    10    27 1   
    23    10    45 1   
    24    10    46 1   
    25    10    47 1   
    26    11    27 1   
    27    11    48 1   
    28    11    49 1   
    29    11    50 1   
    30    12    13 1   
    31    12    53 1   
    32    12    54 1   
    33    12    70 1   
    34    13    14 1   
    35    13    17 1   
    36    13    34 1   
    37    14    15 ar  
    38    15    16 ar  
    39    15    55 1   
    40    16    28 ar  
    41    16    31 1   
    42    17    18 1   
    43    17    21 1   
    44    17    59 1   
    45    18    19 ar  
    46    19    20 ar  
    47    19    26 1   
    48    20    32 1   
    49    21    22 ar  
    50    21    25 ar  
    51    22    29 ar  
    52    22    33 1   
    53    23    24 ar  
    54    23    29 ar  
    55    24    25 ar  
    56    25    63 1   
    57    27    70 1   
    58    30    69 1   
    59    31    71 1   
    60    32    72 1   
    61    33    73 1   
    62    34    67 1   
    63    40    69 1   
    64    41    69 1   
    65    42    69 1   
    66    51    70 1   
    67    52    70 1   
    68    56    71 1   
    69    57    71 1   
    70    58    71 1   
    71    60    72 1   
    72    61    72 1   
    73    62    72 1   
    74    64    73 1   
    75    65    73 1   
    76    66    73 1   
@<TRIPOS>SUBSTRUCTURE
     1 UTI         1 TEMP              0 ****  ****    0 ROOT
