@<TRIPOS>MOLECULE
UTJ
   31    33     1     0     0
SMALL
No Charge or Current Charge


@<TRIPOS>ATOM
      1 N1           2.2490    39.3660   -25.2510 nb         1 UTJ      -0.666000
      2 C4           7.4350    37.9320   -24.9810 ca         1 UTJ      -0.095500
      3 C5           6.5380    38.8000   -25.6460 cp         1 UTJ      -0.036000
      4 C6           6.6320    40.1870   -25.3810 ca         1 UTJ      -0.095500
      5 C7           7.5750    40.6860   -24.4670 ca         1 UTJ      -0.096000
      6 C8           5.5500    38.2640   -26.6290 cp         1 UTJ      -0.011000
      7 C10          5.1370    37.0150   -28.7070 ca         1 UTJ      -0.092000
      8 C13          1.8850    38.1750   -27.3260 ca         1 UTJ      -0.148000
      9 C15          3.5810    39.1560   -25.4010 ca         1 UTJ       0.361900
     10 N           11.7600    40.9530   -23.9770 n1         1 UTJ      -0.457000
     11 C           10.7440    40.6820   -23.4740 c1         1 UTJ       0.298900
     12 C2           8.4530    39.8100   -23.8010 ca         1 UTJ      -0.085300
     13 C3           8.3780    38.4280   -24.0660 ca         1 UTJ      -0.096000
     14 C16          4.1460    38.4680   -26.5000 ca         1 UTJ      -0.084000
     15 C14          1.4240    38.8830   -26.2060 ca         1 UTJ       0.324900
     16 C12          3.2640    37.9570   -27.4790 ca         1 UTJ      -0.012000
     17 C11          3.7580    37.2370   -28.5800 ca         1 UTJ      -0.102000
     18 C9           6.0200    37.5220   -27.7400 ca         1 UTJ      -0.101000
     19 H1           7.3900    36.8620   -25.1750 ha         1 UTJ       0.122500
     20 H2           5.9700    40.8800   -25.8960 ha         1 UTJ       0.122500
     21 H3           7.6240    41.7570   -24.2800 ha         1 UTJ       0.118500
     22 H4           5.5220    36.4540   -29.5560 ha         1 UTJ       0.118000
     23 H5           1.1740    37.8020   -28.0570 ha         1 UTJ       0.123000
     24 H6           4.2030    39.5490   -24.5990 h4         1 UTJ       0.025100
     25 H7           9.1000    41.2500   -22.3100 hc         1 UTJ       0.076700
     26 H8           9.6800    39.6180   -22.0190 hc         1 UTJ       0.076700
     27 H9           9.0530    37.7370   -23.5650 ha         1 UTJ       0.118500
     28 H10          0.3590    39.0640   -26.0640 h4         1 UTJ       0.020100
     29 H11          3.0760    36.8440   -29.3310 ha         1 UTJ       0.120000
     30 H12          7.0880    37.3520   -27.8570 ha         1 UTJ       0.120000
     31 C1           9.4780    40.3510   -22.8090 c3         1 UTJ       0.032000
@<TRIPOS>BOND
     1     1     9 ar  
     2     1    15 ar  
     3     2     3 ar  
     4     2    13 ar  
     5     2    19 1   
     6     3     4 ar  
     7     3     6 1   
     8     4     5 ar  
     9     4    20 1   
    10     5    12 ar  
    11     5    21 1   
    12     6    14 ar  
    13     6    18 ar  
    14     7    17 ar  
    15     7    18 ar  
    16     7    22 1   
    17     8    15 ar  
    18     8    16 ar  
    19     8    23 1   
    20     9    14 ar  
    21     9    24 1   
    22    10    11 3   
    23    11    31 1   
    24    12    13 ar  
    25    12    31 1   
    26    13    27 1   
    27    14    16 ar  
    28    15    28 1   
    29    16    17 ar  
    30    17    29 1   
    31    18    30 1   
    32    25    31 1   
    33    26    31 1   
@<TRIPOS>SUBSTRUCTURE
     1 UTJ         1 TEMP              0 ****  ****    0 ROOT
