@<TRIPOS>MOLECULE
UTJ
   31    33     1     0     0
SMALL
bcc


@<TRIPOS>ATOM
      1 N1           2.2890    39.3420   -25.2490 nb         1 UTJ      -0.666000
      2 C4           7.4290    37.9470   -24.9890 ca         1 UTJ      -0.113500
      3 C5           6.5330    38.8010   -25.6310 cp         1 UTJ      -0.036000
      4 C6           6.6030    40.1660   -25.3580 ca         1 UTJ      -0.113500
      5 C7           7.5380    40.6620   -24.4620 ca         1 UTJ      -0.114000
      6 C8           5.5670    38.2620   -26.6130 cp         1 UTJ      -0.011000
      7 C10          5.1530    37.0260   -28.6620 ca         1 UTJ      -0.110000
      8 C13          1.9040    38.2120   -27.3190 ca         1 UTJ      -0.231300
      9 C15          3.5720    39.1390   -25.3840 ca         1 UTJ       0.427200
     10 N           11.6890    40.8780   -24.0690 n1         1 UTJ      -0.367800
     11 C           10.7030    40.6450   -23.5240 c1         1 UTJ       0.209700
     12 C2           8.4230    39.8040   -23.8200 ca         1 UTJ      -0.085300
     13 C3           8.3630    38.4430   -24.0930 ca         1 UTJ      -0.114000
     14 C16          4.1640    38.4740   -26.4870 ca         1 UTJ      -0.149300
     15 C14          1.4650    38.8910   -26.2200 ca         1 UTJ       0.390200
     16 C12          3.2860    37.9720   -27.4800 ca         1 UTJ      -0.012000
     17 C11          3.8070    37.2460   -28.5730 ca         1 UTJ      -0.120000
     18 C9           6.0300    37.5350   -27.6830 ca         1 UTJ      -0.119000
     19 H1           7.3880    36.8820   -25.1820 ha         1 UTJ       0.140500
     20 H2           5.9330    40.8540   -25.8580 ha         1 UTJ       0.140500
     21 H3           7.5750    41.7260   -24.2650 ha         1 UTJ       0.136500
     22 H4           5.5600    36.4680   -29.4950 ha         1 UTJ       0.136000
     23 H5           1.2010    37.8540   -28.0610 ha         1 UTJ       0.141000
     24 H6           4.2010    39.5010   -24.5770 h4         1 UTJ       0.025100
     25 H7           9.0940    41.2590   -22.3700 hc         1 UTJ       0.076700
     26 H8           9.6530    39.6270   -22.0540 hc         1 UTJ       0.076700
     27 H9           9.0430    37.7600   -23.5990 ha         1 UTJ       0.136500
     28 H10          0.4090    39.0870   -26.0770 h4         1 UTJ       0.020100
     29 H11          3.1320    36.8660   -29.3300 ha         1 UTJ       0.138000
     30 H12          7.0940    37.3670   -27.7950 ha         1 UTJ       0.138000
     31 C1           9.4470    40.3450   -22.8500 c3         1 UTJ       0.032000
@<TRIPOS>BOND
     1     1     9 ar  
     2     1    15 ar  
     3     2     3 ar  
     4     2    13 ar  
     5     2    19 1   
     6     3     4 ar  
     7     3     6 1   
     8     4     5 ar  
     9     4    20 1   
    10     5    12 ar  
    11     5    21 1   
    12     6    14 ar  
    13     6    18 ar  
    14     7    17 ar  
    15     7    18 ar  
    16     7    22 1   
    17     8    15 ar  
    18     8    16 ar  
    19     8    23 1   
    20     9    14 ar  
    21     9    24 1   
    22    10    11 3   
    23    11    31 1   
    24    12    13 ar  
    25    12    31 1   
    26    13    27 1   
    27    14    16 ar  
    28    15    28 1   
    29    16    17 ar  
    30    17    29 1   
    31    18    30 1   
    32    25    31 1   
    33    26    31 1   
@<TRIPOS>SUBSTRUCTURE
     1 UTJ         1 TEMP              0 ****  ****    0 ROOT
