@<TRIPOS>MOLECULE
UTK
   40    42     1     0     0
SMALL
No Charge or Current Charge


@<TRIPOS>ATOM
      1 N1           6.2310    12.0700   126.9190 n          1 UTK      -0.304600
      2 C4           6.6030    12.7030   128.1140 c          1 UTK       0.627000
      3 C5           5.0200    13.1370   125.0660 ca         1 UTK      -0.142000
      4 C6           3.7510    12.1280   126.8800 ca         1 UTK       0.150000
      5 C7           8.2680    10.7450   127.0160 cc         1 UTK      -0.306200
      6 C15          2.5790    13.1920   125.0260 ca         1 UTK      -0.017000
      7 C24          5.2740    12.9070   121.7160 ca         1 UTK      -0.070300
      8 C26          6.3880    12.8980   120.8520 ca         1 UTK      -0.105000
      9 C28          6.7500    15.2720   121.2520 ca         1 UTK      -0.107000
     10 C27          4.4830    11.6210   121.9330 c3         1 UTK      -0.053800
     11 C29          7.1230    14.0730   120.6230 ca         1 UTK      -0.101000
     12 C25          5.6440    15.2930   122.1170 ca         1 UTK      -0.101000
     13 C19          4.9130    14.1170   122.3560 ca         1 UTK       0.072100
     14 C11          3.8180    13.5050   124.4260 ca         1 UTK       0.171100
     15 C18          1.3440    13.5600   124.3910 cg         1 UTK       0.332000
     16 N23          0.3320    13.8520   123.8850 n1         1 UTK      -0.436000
     17 C12          2.5520    12.5010   126.2530 ca         1 UTK      -0.076000
     18 F13          3.7010    11.4420   128.0450 f          1 UTK      -0.165000
     19 C2           4.9940    12.4470   126.2910 ca         1 UTK       0.056600
     20 C3           7.0230    11.0790   126.3150 c          1 UTK       0.591200
     21 O8           6.7000    10.5220   125.2760 o          1 UTK      -0.488000
     22 C14          8.6440    11.3500   128.1900 cd         1 UTK       0.004400
     23 N9           7.7800    12.3070   128.6830 ns         1 UTK      -0.508600
     24 O10          5.9360    13.5780   128.6400 o          1 UTK      -0.515000
     25 H1           5.9780    13.3850   124.6180 ha         1 UTK       0.147000
     26 H2           8.8680     9.9790   126.5390 ha         1 UTK       0.242000
     27 H4           6.6850    11.9770   120.3540 ha         1 UTK       0.119000
     28 H5           7.3180    16.1830   121.0710 ha         1 UTK       0.122000
     29 H6           4.7690    11.1380   122.8750 hc         1 UTK       0.054700
     30 H7           3.4040    11.8140   121.9660 hc         1 UTK       0.054700
     31 H8           4.6570    10.8990   121.1260 hc         1 UTK       0.054700
     32 H9           7.9810    14.0550   119.9530 ha         1 UTK       0.119000
     33 H10          5.3550    16.2190   122.6080 ha         1 UTK       0.133000
     34 H11          1.6040    12.2450   126.7210 ha         1 UTK       0.151000
     35 H3           7.9920    12.8030   129.5450 hn         1 UTK       0.477000
     36 C17          9.9110    11.0730   128.9960 c3         1 UTK       0.345200
     37 O16          3.8410    14.1750   123.2180 os         1 UTK      -0.240200
     38 F21         10.6840    10.1180   128.4290 f          1 UTK      -0.095000
     39 F22          9.6240    10.6530   130.2490 f          1 UTK      -0.095000
     40 F20         10.6790    12.1800   129.1140 f          1 UTK      -0.095000
@<TRIPOS>BOND
     1     1     2 1   
     2     1    19 1   
     3     1    20 1   
     4     2    23 1   
     5     2    24 2   
     6     3    14 ar  
     7     3    19 ar  
     8     3    25 1   
     9     4    17 ar  
    10     4    18 1   
    11     4    19 ar  
    12     5    20 1   
    13     5    22 2   
    14     5    26 1   
    15     6    14 ar  
    16     6    15 1   
    17     6    17 ar  
    18     7     8 ar  
    19     7    10 1   
    20     7    13 ar  
    21     8    11 ar  
    22     8    27 1   
    23     9    11 ar  
    24     9    12 ar  
    25     9    28 1   
    26    10    29 1   
    27    10    30 1   
    28    10    31 1   
    29    11    32 1   
    30    12    13 ar  
    31    12    33 1   
    32    13    37 1   
    33    14    37 1   
    34    15    16 3   
    35    17    34 1   
    36    20    21 2   
    37    22    23 1   
    38    22    36 1   
    39    23    35 1   
    40    36    38 1   
    41    36    39 1   
    42    36    40 1   
@<TRIPOS>SUBSTRUCTURE
     1 UTK         1 TEMP              0 ****  ****    0 ROOT
