@<TRIPOS>MOLECULE
UTK
   40    42     1     0     0
SMALL
abcg2


@<TRIPOS>ATOM
      1 N1           6.2730    12.0750   126.8750 n          1 UTK      -0.304600
      2 C4           6.7840    12.9490   127.8330 c          1 UTK       0.627000
      3 C5           5.0390    13.0120   124.9870 ca         1 UTK      -0.142000
      4 C6           3.8430    12.2270   126.9190 ca         1 UTK       0.150000
      5 C7           8.0550    10.4880   127.2240 cc         1 UTK      -0.306200
      6 C15          2.6270    13.1140   125.0660 ca         1 UTK      -0.017000
      7 C24          5.3310    12.9030   121.6480 ca         1 UTK      -0.070300
      8 C26          6.4570    13.0840   120.8430 ca         1 UTK      -0.105000
      9 C28          6.6230    15.4040   121.4810 ca         1 UTK      -0.107000
     10 C27          4.6270    11.5790   121.7420 c3         1 UTK      -0.053800
     11 C29          7.1000    14.3150   120.7590 ca         1 UTK      -0.101000
     12 C25          5.5060    15.2510   122.2940 ca         1 UTK      -0.101000
     13 C19          4.8880    14.0140   122.3650 ca         1 UTK       0.072100
     14 C11          3.8330    13.3460   124.3830 ca         1 UTK       0.171100
     15 C18          1.3910    13.4490   124.4430 cg         1 UTK       0.332000
     16 N23          0.3870    13.7150   123.9430 n1         1 UTK      -0.436000
     17 C12          2.6350    12.5540   126.3470 ca         1 UTK      -0.076000
     18 F13          3.8720    11.6810   128.1490 f          1 UTK      -0.165000
     19 C2           5.0400    12.4490   126.2510 ca         1 UTK       0.056600
     20 C3           6.8420    10.8320   126.5130 c          1 UTK       0.591200
     21 O8           6.3100    10.1340   125.6690 o          1 UTK      -0.488000
     22 C14          8.5450    11.3270   128.1490 cd         1 UTK       0.004400
     23 N9           7.9420    12.5180   128.4390 ns         1 UTK      -0.508600
     24 O10          6.2540    14.0050   128.1130 o          1 UTK      -0.515000
     25 H1           5.9770    13.1810   124.4800 ha         1 UTK       0.147000
     26 H2           8.5290     9.5480   126.9950 ha         1 UTK       0.242000
     27 H4           6.8260    12.2430   120.2690 ha         1 UTK       0.119000
     28 H5           7.1160    16.3650   121.4180 ha         1 UTK       0.122000
     29 H6           4.7810    11.1150   122.7190 hc         1 UTK       0.054700
     30 H7           3.5500    11.6950   121.6080 hc         1 UTK       0.054700
     31 H8           5.0020    10.8950   120.9820 hc         1 UTK       0.054700
     32 H9           7.9700    14.4240   120.1240 ha         1 UTK       0.119000
     33 H10          5.1100    16.0760   122.8720 ha         1 UTK       0.133000
     34 H11          1.7120    12.3740   126.8790 ha         1 UTK       0.151000
     35 H3           8.3250    13.1440   129.1350 hn         1 UTK       0.477000
     36 C17          9.7930    11.0190   128.9480 c3         1 UTK       0.345200
     37 O16          3.7350    13.9010   123.1510 os         1 UTK      -0.240200
     38 F21         10.3160     9.8380   128.6100 f          1 UTK      -0.095000
     39 F22          9.5220    10.9900   130.2670 f          1 UTK      -0.095000
     40 F20         10.7330    11.9630   128.7560 f          1 UTK      -0.095000
@<TRIPOS>BOND
     1     1     2 1   
     2     1    19 1   
     3     1    20 1   
     4     2    23 1   
     5     2    24 2   
     6     3    14 ar  
     7     3    19 ar  
     8     3    25 1   
     9     4    17 ar  
    10     4    18 1   
    11     4    19 ar  
    12     5    20 1   
    13     5    22 2   
    14     5    26 1   
    15     6    14 ar  
    16     6    15 1   
    17     6    17 ar  
    18     7     8 ar  
    19     7    10 1   
    20     7    13 ar  
    21     8    11 ar  
    22     8    27 1   
    23     9    11 ar  
    24     9    12 ar  
    25     9    28 1   
    26    10    29 1   
    27    10    30 1   
    28    10    31 1   
    29    11    32 1   
    30    12    13 ar  
    31    12    33 1   
    32    13    37 1   
    33    14    37 1   
    34    15    16 3   
    35    17    34 1   
    36    20    21 2   
    37    22    23 1   
    38    22    36 1   
    39    23    35 1   
    40    36    38 1   
    41    36    39 1   
    42    36    40 1   
@<TRIPOS>SUBSTRUCTURE
     1 UTK         1 TEMP              0 ****  ****    0 ROOT
