@<TRIPOS>MOLECULE
UTM
   77    83     1     0     0
SMALL
abcg2


@<TRIPOS>ATOM
      1 N1          11.0110   -17.8210    36.7620 n3         1 UTM      -0.734600
      2 N3           4.2500   -20.4430    32.2290 na         1 UTM      -0.220700
      3 C4           8.6080   -17.8770    36.2690 ca         1 UTM      -0.050300
      4 C5           7.5160   -17.0870    35.9440 ca         1 UTM      -0.143000
      5 C6           6.5020   -17.5960    35.1450 ca         1 UTM      -0.076000
      6 C7           6.5370   -18.8960    34.6470 ca         1 UTM      -0.041800
      7 C8           7.6550   -19.6880    34.9740 ca         1 UTM       0.145100
      8 C10          7.9010   -23.2840    34.7400 c3         1 UTM      -0.034100
      9 C13          4.1110   -23.1580    34.7030 ca         1 UTM      -0.094000
     10 C15          4.8290   -23.5930    36.9450 ca         1 UTM      -0.094000
     11 C17          2.3920   -23.2210    36.5020 cp         1 UTM      -0.011000
     12 C20         -0.2570   -22.8190    37.3980 ca         1 UTM      -0.108000
     13 C21          0.3930   -24.0440    37.6700 ca         1 UTM      -0.014000
     14 C22         -0.2310   -25.0940    38.3800 ca         1 UTM      -0.149000
     15 C24          2.2920   -25.5240    37.4660 ca         1 UTM       0.361900
     16 C26          8.6710   -19.1760    35.7720 ca         1 UTM      -0.176000
     17 C28          5.5030   -20.1750    32.7040 cc         1 UTM      -0.132100
     18 C           15.0500   -18.2230    35.6860 c3         1 UTM       0.154100
     19 N           13.7790   -17.6900    36.1150 n3         1 UTM      -0.718600
     20 C35         12.7710   -17.8090    35.0810 c6         1 UTM       0.165300
     21 C34         11.4620   -17.1940    35.5360 c6         1 UTM       0.168800
     22 C2          12.0130   -17.6840    37.7990 c6         1 UTM       0.168800
     23 C1          13.3200   -18.3050    37.3430 c6         1 UTM       0.165300
     24 C3           9.7030   -17.3670    37.1730 c3         1 UTM       0.218100
     25 C27          5.4300   -19.4120    33.8370 cd         1 UTM      -0.053400
     26 C33          4.0260   -19.2090    34.0720 ca         1 UTM      -0.146800
     27 C32          3.2630   -18.5710    35.0520 ca         1 UTM       0.387900
     28 N4           1.9410   -18.5520    35.0240 nb         1 UTM      -0.696000
     29 C31          1.3060   -19.1750    34.0180 ca         1 UTM       0.334900
     30 C30          1.9360   -19.8590    33.0000 ca         1 UTM      -0.180000
     31 C29          3.3270   -19.8720    33.0410 ca         1 UTM      -0.030200
     32 O            7.6790   -20.9370    34.4750 os         1 UTM      -0.354100
     33 C9           8.4790   -21.9240    35.1010 c3         1 UTM       0.167600
     34 C11          6.4680   -23.3900    35.1790 ca         1 UTM      -0.071300
     35 C16          6.1460   -23.6110    36.5160 ca         1 UTM      -0.099500
     36 C14          3.7920   -23.3530    36.0450 cp         1 UTM      -0.041000
     37 C12          5.4290   -23.1790    34.2790 ca         1 UTM      -0.099500
     38 C25          1.7180   -24.2530    37.2130 ca         1 UTM      -0.085000
     39 N2           1.6940   -26.4860    38.1150 nb         1 UTM      -0.670000
     40 C23          0.4450   -26.2620    38.5800 ca         1 UTM       0.321900
     41 C19          0.3960   -21.8500    36.6890 ca         1 UTM      -0.087000
     42 C18          1.7170   -22.0510    36.2450 ca         1 UTM      -0.099000
     43 H2           4.0540   -20.9840    31.4030 hn         1 UTM       0.352000
     44 H3           7.4550   -16.0670    36.3040 ha         1 UTM       0.114000
     45 H4           5.6670   -16.9570    34.8860 ha         1 UTM       0.119000
     46 H5           8.5180   -24.0430    35.2250 hc         1 UTM       0.056700
     47 H6           7.9860   -23.4460    33.6630 hc         1 UTM       0.056700
     48 H7           3.3200   -22.9870    33.9830 ha         1 UTM       0.116500
     49 H8           4.6100   -23.7400    37.9960 ha         1 UTM       0.116500
     50 H9          -1.2680   -22.6630    37.7530 ha         1 UTM       0.118000
     51 H10         -1.2390   -24.9700    38.7560 ha         1 UTM       0.121000
     52 H11          3.2880   -25.7390    37.0930 h4         1 UTM       0.024100
     53 H12          9.5450   -19.7710    36.0060 ha         1 UTM       0.133000
     54 H13          6.3680   -20.5490    32.1820 h4         1 UTM       0.223000
     55 H14         15.7980   -18.0840    36.4680 h1         1 UTM       0.030033
     56 H15         15.0150   -19.2970    35.4430 h1         1 UTM       0.030033
     57 H16         15.3960   -17.6940    34.7960 h1         1 UTM       0.030033
     58 H18         12.5930   -18.8630    34.8040 h1         1 UTM       0.036450
     59 H19         13.1170   -17.2940    34.1820 h1         1 UTM       0.036450
     60 H20         11.5980   -16.1060    35.6660 h1         1 UTM       0.040200
     61 H21         10.7110   -17.3340    34.7570 h1         1 UTM       0.040200
     62 H22         12.1870   -16.6290    38.0700 h1         1 UTM       0.040200
     63 H23         11.6690   -18.1980    38.7000 h1         1 UTM       0.040200
     64 H24         13.1740   -19.3940    37.2260 h1         1 UTM       0.036450
     65 H25         14.0770   -18.1640    38.1190 h1         1 UTM       0.036450
     66 H26          9.6350   -16.2680    37.2420 h1         1 UTM       0.040200
     67 H27          9.5200   -17.7450    38.1840 h1         1 UTM       0.040200
     68 H28          3.7400   -18.0650    35.8850 h4         1 UTM       0.023100
     69 H29          0.2230   -19.1270    34.0380 h4         1 UTM       0.014100
     70 H30          1.3710   -20.3560    32.2220 ha         1 UTM       0.123000
     71 H31          9.5200   -21.8510    34.7690 h1         1 UTM       0.040200
     72 H32          8.4670   -21.7940    36.1880 h1         1 UTM       0.040200
     73 H33          6.9360   -23.7790    37.2400 ha         1 UTM       0.108500
     74 H34          5.6520   -23.0140    33.2330 ha         1 UTM       0.108500
     75 H35         -0.0140   -27.0790    39.1240 h4         1 UTM       0.017100
     76 H36         -0.0920   -20.9080    36.4750 ha         1 UTM       0.122000
     77 H37          2.2210   -21.2560    35.7110 ha         1 UTM       0.128000
@<TRIPOS>BOND
     1     1    21 1   
     2     1    22 1   
     3     1    24 1   
     4     2    17 1   
     5     2    31 1   
     6     2    43 1   
     7     3     4 ar  
     8     3    16 ar  
     9     3    24 1   
    10     4     5 ar  
    11     4    44 1   
    12     5     6 ar  
    13     5    45 1   
    14     6     7 ar  
    15     6    25 1   
    16     7    16 ar  
    17     7    32 1   
    18     8    33 1   
    19     8    34 1   
    20     8    46 1   
    21     8    47 1   
    22     9    36 ar  
    23     9    37 ar  
    24     9    48 1   
    25    10    35 ar  
    26    10    36 ar  
    27    10    49 1   
    28    11    36 1   
    29    11    38 ar  
    30    11    42 ar  
    31    12    13 ar  
    32    12    41 ar  
    33    12    50 1   
    34    13    14 ar  
    35    13    38 ar  
    36    14    40 ar  
    37    14    51 1   
    38    15    38 ar  
    39    15    39 ar  
    40    15    52 1   
    41    16    53 1   
    42    17    25 2   
    43    17    54 1   
    44    18    19 1   
    45    18    55 1   
    46    18    56 1   
    47    18    57 1   
    48    19    20 1   
    49    19    23 1   
    50    20    21 1   
    51    20    58 1   
    52    20    59 1   
    53    21    60 1   
    54    21    61 1   
    55    22    23 1   
    56    22    62 1   
    57    22    63 1   
    58    23    64 1   
    59    23    65 1   
    60    24    66 1   
    61    24    67 1   
    62    25    26 1   
    63    26    27 ar  
    64    26    31 ar  
    65    27    28 ar  
    66    27    68 1   
    67    28    29 ar  
    68    29    30 ar  
    69    29    69 1   
    70    30    31 ar  
    71    30    70 1   
    72    32    33 1   
    73    33    71 1   
    74    33    72 1   
    75    34    35 ar  
    76    34    37 ar  
    77    35    73 1   
    78    37    74 1   
    79    39    40 ar  
    80    40    75 1   
    81    41    42 ar  
    82    41    76 1   
    83    42    77 1   
@<TRIPOS>SUBSTRUCTURE
     1 UTM         1 TEMP              0 ****  ****    0 ROOT
