@<TRIPOS>MOLECULE
UTM
   77    83     1     0     0
SMALL
No Charge or Current Charge


@<TRIPOS>ATOM
      1 N1          11.5180   -17.8660    36.6980 n3         1 UTM      -0.734600
      2 N3           4.1430   -20.5380    33.0140 na         1 UTM      -0.220700
      3 C4           9.0200   -18.1910    36.6350 ca         1 UTM      -0.050300
      4 C5           8.0340   -17.2670    36.2550 ca         1 UTM      -0.143000
      5 C6           6.9170   -17.6820    35.5120 ca         1 UTM      -0.076000
      6 C7           6.7510   -19.0320    35.1330 ca         1 UTM      -0.041800
      7 C8           7.7610   -19.9640    35.5030 ca         1 UTM       0.145100
      8 C10          7.7240   -23.6920    35.3510 c3         1 UTM      -0.034100
      9 C13          3.9620   -23.8330    34.5890 ca         1 UTM      -0.094000
     10 C15          4.2490   -23.6000    36.9880 ca         1 UTM      -0.094000
     11 C17          1.9030   -23.6340    36.0340 cp         1 UTM      -0.011000
     12 C20         -0.9120   -23.3720    36.3070 ca         1 UTM      -0.108000
     13 C21         -0.2320   -24.4050    36.9750 ca         1 UTM      -0.014000
     14 C22         -0.9310   -25.3200    37.7800 ca         1 UTM      -0.149000
     15 C24          1.7860   -25.6250    37.5180 ca         1 UTM       0.361900
     16 C26          8.8790   -19.5360    36.2550 ca         1 UTM      -0.176000
     17 C28          5.4800   -20.5070    33.4590 cc         1 UTM      -0.132100
     18 C           15.3750   -17.0240    34.7990 c3         1 UTM       0.154100
     19 N           14.0960   -16.8950    35.5300 n3         1 UTM      -0.718600
     20 C35         12.9080   -17.2000    34.6750 c6         1 UTM       0.165300
     21 C34         11.5600   -17.0400    35.4490 c6         1 UTM       0.168800
     22 C2          12.7070   -17.5610    37.5510 c6         1 UTM       0.168800
     23 C1          14.0550   -17.7220    36.7750 c6         1 UTM       0.165300
     24 C3          10.2390   -17.7410    37.4400 c3         1 UTM       0.218100
     25 C27          5.5560   -19.4310    34.3420 cd         1 UTM      -0.053400
     26 C33          4.2270   -18.8520    34.4960 ca         1 UTM      -0.146800
     27 C32          3.6840   -17.8500    35.3250 ca         1 UTM       0.387900
     28 N4           2.3600   -17.5360    35.2730 nb         1 UTM      -0.696000
     29 C31          1.5700   -18.2300    34.4080 ca         1 UTM       0.334900
     30 C30          2.0510   -19.2640    33.5790 ca         1 UTM      -0.180000
     31 C29          3.4150   -19.5580    33.6560 ca         1 UTM      -0.030200
     32 O            7.6080   -21.2950    35.1680 os         1 UTM      -0.354100
     33 C9           8.3410   -22.3530    35.8100 c3         1 UTM       0.167600
     34 C11          6.2080   -23.7390    35.5390 ca         1 UTM      -0.071300
     35 C16          5.6450   -23.6200    36.8240 ca         1 UTM      -0.099500
     36 C14          3.3840   -23.7080    35.8740 cp         1 UTM      -0.041000
     37 C12          5.3570   -23.8550    34.4230 ca         1 UTM      -0.099500
     38 C25          1.1670   -24.5470    36.8430 ca         1 UTM      -0.085000
     39 N2           1.1130   -26.5100    38.2940 nb         1 UTM      -0.670000
     40 C23         -0.2230   -26.3490    38.4200 ca         1 UTM       0.321900
     41 C19         -0.1990   -22.4760    35.4970 ca         1 UTM      -0.087000
     42 C18          1.1930   -22.6100    35.3630 ca         1 UTM      -0.099000
     43 H2           3.7630   -21.1940    32.3380 hn         1 UTM       0.352000
     44 H3           8.1380   -16.2180    36.5220 ha         1 UTM       0.114000
     45 H4           6.2060   -16.9290    35.1890 ha         1 UTM       0.119000
     46 H5           8.1950   -24.5070    35.9140 hc         1 UTM       0.056700
     47 H6           7.9890   -23.8550    34.3000 hc         1 UTM       0.056700
     48 H7           3.3190   -23.9090    33.7160 ha         1 UTM       0.116500
     49 H8           3.8320   -23.4820    37.9850 ha         1 UTM       0.116500
     50 H9          -1.9900   -23.2660    36.4110 ha         1 UTM       0.118000
     51 H10         -2.0070   -25.2440    37.9110 ha         1 UTM       0.121000
     52 H11          2.8570   -25.8040    37.4360 h4         1 UTM       0.024100
     53 H12          9.6570   -20.2360    36.5440 ha         1 UTM       0.133000
     54 H13          6.2340   -21.2070    33.1150 h4         1 UTM       0.223000
     55 H14         16.2190   -16.7440    35.4440 h1         1 UTM       0.030033
     56 H15         15.5300   -18.0560    34.4580 h1         1 UTM       0.030033
     57 H16         15.3870   -16.3650    33.9210 h1         1 UTM       0.030033
     58 H18         12.9710   -18.2300    34.2940 h1         1 UTM       0.036450
     59 H19         12.8900   -16.5350    33.7980 h1         1 UTM       0.036450
     60 H20         11.4220   -15.9760    35.6950 h1         1 UTM       0.040200
     61 H21         10.7400   -17.3210    34.7730 h1         1 UTM       0.040200
     62 H22         12.6460   -16.5300    37.9310 h1         1 UTM       0.040200
     63 H23         12.7270   -18.2250    38.4270 h1         1 UTM       0.040200
     64 H24         14.1890   -18.7860    36.5260 h1         1 UTM       0.036450
     65 H25         14.8810   -17.4430    37.4440 h1         1 UTM       0.036450
     66 H26         10.0940   -16.7010    37.7630 h1         1 UTM       0.040200
     67 H27         10.2820   -18.3510    38.3520 h1         1 UTM       0.040200
     68 H28          4.2810   -17.3070    36.0540 h4         1 UTM       0.023100
     69 H29          0.5150   -17.9570    34.3920 h4         1 UTM       0.014100
     70 H30          1.3830   -19.8100    32.9190 ha         1 UTM       0.123000
     71 H31          9.4040   -22.3210    35.5380 h1         1 UTM       0.040200
     72 H32          8.2550   -22.2720    36.9010 h1         1 UTM       0.040200
     73 H33          6.2870   -23.5240    37.6960 ha         1 UTM       0.108500
     74 H34          5.7740   -23.9420    33.4220 ha         1 UTM       0.108500
     75 H35         -0.7420   -27.0710    39.0490 h4         1 UTM       0.017100
     76 H36         -0.7210   -21.6770    34.9760 ha         1 UTM       0.122000
     77 H37          1.7370   -21.9040    34.7410 ha         1 UTM       0.128000
@<TRIPOS>BOND
     1     1    21 1   
     2     1    22 1   
     3     1    24 1   
     4     2    17 1   
     5     2    31 1   
     6     2    43 1   
     7     3     4 ar  
     8     3    16 ar  
     9     3    24 1   
    10     4     5 ar  
    11     4    44 1   
    12     5     6 ar  
    13     5    45 1   
    14     6     7 ar  
    15     6    25 1   
    16     7    16 ar  
    17     7    32 1   
    18     8    33 1   
    19     8    34 1   
    20     8    46 1   
    21     8    47 1   
    22     9    36 ar  
    23     9    37 ar  
    24     9    48 1   
    25    10    35 ar  
    26    10    36 ar  
    27    10    49 1   
    28    11    36 1   
    29    11    38 ar  
    30    11    42 ar  
    31    12    13 ar  
    32    12    41 ar  
    33    12    50 1   
    34    13    14 ar  
    35    13    38 ar  
    36    14    40 ar  
    37    14    51 1   
    38    15    38 ar  
    39    15    39 ar  
    40    15    52 1   
    41    16    53 1   
    42    17    25 2   
    43    17    54 1   
    44    18    19 1   
    45    18    55 1   
    46    18    56 1   
    47    18    57 1   
    48    19    20 1   
    49    19    23 1   
    50    20    21 1   
    51    20    58 1   
    52    20    59 1   
    53    21    60 1   
    54    21    61 1   
    55    22    23 1   
    56    22    62 1   
    57    22    63 1   
    58    23    64 1   
    59    23    65 1   
    60    24    66 1   
    61    24    67 1   
    62    25    26 1   
    63    26    27 ar  
    64    26    31 ar  
    65    27    28 ar  
    66    27    68 1   
    67    28    29 ar  
    68    29    30 ar  
    69    29    69 1   
    70    30    31 ar  
    71    30    70 1   
    72    32    33 1   
    73    33    71 1   
    74    33    72 1   
    75    34    35 ar  
    76    34    37 ar  
    77    35    73 1   
    78    37    74 1   
    79    39    40 ar  
    80    40    75 1   
    81    41    42 ar  
    82    41    76 1   
    83    42    77 1   
@<TRIPOS>SUBSTRUCTURE
     1 UTM         1 TEMP              0 ****  ****    0 ROOT
