@<TRIPOS>MOLECULE
UTN
   44    46     1     0     0
SMALL
abcg2


@<TRIPOS>ATOM
      1 N3          41.2360    -1.7170    11.2570 n          1 UTN      -0.292600
      2 C4          41.1290    -3.1130    11.5690 ca         1 UTN       0.056600
      3 C5          42.1880    -3.9670    11.2280 ca         1 UTN       0.131100
      4 C7          42.0660    -5.3170    11.5250 ca         1 UTN      -0.129000
      5 C8          40.9010    -5.7970    12.1390 ca         1 UTN      -0.002000
      6 C13         37.5960    -4.7140    13.1750 ca         1 UTN       0.078100
      7 C15         35.6300    -3.7780    12.2190 ca         1 UTN      -0.105000
      8 C17         36.0520    -3.5380    14.5790 ca         1 UTN      -0.107000
      9 C20         39.9830    -3.5770    12.1830 ca         1 UTN      -0.127000
     10 C21         41.8480    -0.9060    12.2070 c          1 UTN       0.628000
     11 C24         41.4680     0.9180    10.6720 cc         1 UTN       0.002400
     12 C14         36.8100    -4.5020    12.0410 ca         1 UTN      -0.077300
     13 C16         35.2510    -3.2970    13.4680 ca         1 UTN      -0.105000
     14 C18         37.2360    -4.2510    14.4300 ca         1 UTN      -0.102000
     15 C11         39.8530    -4.9300    12.4710 ca         1 UTN       0.146100
     16 C9          40.7730    -7.1870    12.4180 cg         1 UTN       0.334000
     17 N10         40.6730    -8.3150    12.6380 n1         1 UTN      -0.445000
     18 O6          43.2550    -3.3960    10.6300 os         1 UTN      -0.340100
     19 C30         44.3530    -4.2370    10.2630 c3         1 UTN       0.147900
     20 C2          40.7670    -1.2890     9.9990 c          1 UTN       0.591200
     21 O1          40.2880    -2.0890     9.2130 o          1 UTN      -0.494000
     22 C29         40.9000     0.1320     9.7460 cd         1 UTN      -0.305200
     23 C25         41.6460     2.4080    10.4830 c3         1 UTN       0.343200
     24 F27         41.1810     2.8230     9.3030 f          1 UTN      -0.096000
     25 F28         42.9470     2.7480    10.5610 f          1 UTN      -0.096000
     26 F26         40.9990     3.0920    11.4480 f          1 UTN      -0.096000
     27 N23         41.9300     0.4230    11.8570 ns         1 UTN      -0.511600
     28 O22         42.2740    -1.3270    13.2640 o          1 UTN      -0.521000
     29 H1          42.8510    -6.0160    11.2840 ha         1 UTN       0.136000
     30 H2          34.9970    -3.5990    11.3590 ha         1 UTN       0.118000
     31 H3          35.7610    -3.1720    15.5560 ha         1 UTN       0.120000
     32 H4          39.1940    -2.8810    12.4260 ha         1 UTN       0.144000
     33 H5          38.0140    -4.4180    10.2560 hc         1 UTN       0.054033
     34 H6          37.5880    -6.0480    10.7600 hc         1 UTN       0.054033
     35 H7          36.3680    -5.0060    10.0080 hc         1 UTN       0.054033
     36 H8          34.3280    -2.7420    13.5730 ha         1 UTN       0.118000
     37 H9          37.8840    -4.4530    15.2730 ha         1 UTN       0.133000
     38 H10         45.0850    -3.5810     9.8020 h1         1 UTN       0.048033
     39 H11         44.7860    -4.7150    11.1450 h1         1 UTN       0.048033
     40 H12         44.0350    -4.9990     9.5480 h1         1 UTN       0.048033
     41 H13         40.5390     0.5190     8.8070 ha         1 UTN       0.240000
     42 H14         42.3630     1.0270    12.5440 hn         1 UTN       0.475000
     43 O12         38.7640    -5.4740    13.0770 os         1 UTN      -0.243200
     44 C19         37.2150    -5.0250    10.6920 c3         1 UTN      -0.054800
@<TRIPOS>BOND
     1     1     2 1   
     2     1    10 1   
     3     1    20 1   
     4     2     3 ar  
     5     2     9 ar  
     6     3     4 ar  
     7     3    18 1   
     8     4     5 ar  
     9     4    29 1   
    10     5    15 ar  
    11     5    16 1   
    12     6    12 ar  
    13     6    14 ar  
    14     6    43 1   
    15     7    12 ar  
    16     7    13 ar  
    17     7    30 1   
    18     8    13 ar  
    19     8    14 ar  
    20     8    31 1   
    21     9    15 ar  
    22     9    32 1   
    23    10    27 1   
    24    10    28 2   
    25    11    22 2   
    26    11    23 1   
    27    11    27 1   
    28    12    44 1   
    29    13    36 1   
    30    14    37 1   
    31    15    43 1   
    32    16    17 3   
    33    18    19 1   
    34    19    38 1   
    35    19    39 1   
    36    19    40 1   
    37    20    21 2   
    38    20    22 1   
    39    22    41 1   
    40    23    24 1   
    41    23    25 1   
    42    23    26 1   
    43    27    42 1   
    44    33    44 1   
    45    34    44 1   
    46    35    44 1   
@<TRIPOS>SUBSTRUCTURE
     1 UTN         1 TEMP              0 ****  ****    0 ROOT
