@<TRIPOS>MOLECULE
UTN
   44    46     1     0     0
SMALL
No Charge or Current Charge


@<TRIPOS>ATOM
      1 N3          41.2520    -1.6780    11.3130 n          1 UTN      -0.292600
      2 C4          41.1540    -3.0770    11.6210 ca         1 UTN       0.056600
      3 C5          42.1800    -3.9740    11.2440 ca         1 UTN       0.131100
      4 C7          42.0550    -5.3460    11.5610 ca         1 UTN      -0.129000
      5 C8          40.9120    -5.8190    12.2390 ca         1 UTN      -0.002000
      6 C13         37.5560    -4.7350    13.2270 ca         1 UTN       0.078100
      7 C15         35.5990    -3.9020    12.0420 ca         1 UTN      -0.105000
      8 C17         35.8270    -3.5200    14.4370 ca         1 UTN      -0.107000
      9 C20         40.0170    -3.5520    12.2960 ca         1 UTN      -0.127000
     10 C21         42.1470    -0.8860    12.0470 c          1 UTN       0.628000
     11 C24         41.4980     1.0670    10.7120 cc         1 UTN       0.002400
     12 C14         36.8260    -4.5960    12.0220 ca         1 UTN      -0.077300
     13 C16         35.1030    -3.3650    13.2430 ca         1 UTN      -0.105000
     14 C18         37.0520    -4.2070    14.4270 ca         1 UTN      -0.102000
     15 C11         39.8860    -4.9210    12.6010 ca         1 UTN       0.146100
     16 C9          40.7980    -7.2200    12.5450 cg         1 UTN       0.334000
     17 N10         40.7180    -8.3600    12.7860 n1         1 UTN      -0.445000
     18 O6          43.2750    -3.4760    10.5580 os         1 UTN      -0.340100
     19 C30         44.3710    -4.3080    10.1380 c3         1 UTN       0.147900
     20 C2          40.4580    -1.1580    10.2790 c          1 UTN       0.591200
     21 O1          39.6770    -1.8460     9.6360 o          1 UTN      -0.494000
     22 C29         40.6240     0.2780    10.0080 cd         1 UTN      -0.305200
     23 C25         41.7560     2.5570    10.5190 c3         1 UTN       0.343200
     24 F27         41.0040     3.0800     9.5230 f          1 UTN      -0.096000
     25 F28         43.0500     2.8020    10.2100 f          1 UTN      -0.096000
     26 F26         41.4720     3.2590    11.6400 f          1 UTN      -0.096000
     27 N23         42.2230     0.4350    11.7080 ns         1 UTN      -0.511600
     28 O22         42.8270    -1.3200    12.9620 o          1 UTN      -0.521000
     29 H1          42.8290    -6.0550    11.2830 ha         1 UTN       0.136000
     30 H2          35.0260    -3.7800    11.1260 ha         1 UTN       0.118000
     31 H3          35.4400    -3.1070    15.3660 ha         1 UTN       0.120000
     32 H4          39.2380    -2.8500    12.5810 ha         1 UTN       0.144000
     33 H5          38.0910    -4.5350    10.2530 hc         1 UTN       0.054033
     34 H6          37.7800    -6.1730    10.8560 hc         1 UTN       0.054033
     35 H7          36.5210    -5.3020     9.9800 hc         1 UTN       0.054033
     36 H8          34.1540    -2.8320    13.2480 ha         1 UTN       0.118000
     37 H9          37.6160    -4.3250    15.3490 ha         1 UTN       0.133000
     38 H10         45.1270    -3.7070     9.6180 h1         1 UTN       0.048033
     39 H11         44.8530    -4.7850    11.0010 h1         1 UTN       0.048033
     40 H12         44.0270    -5.0900     9.4490 h1         1 UTN       0.048033
     41 H13         40.0030     0.6610     9.2060 ha         1 UTN       0.240000
     42 H14         42.8860     0.9610    12.2710 hn         1 UTN       0.475000
     43 O12         38.7650    -5.3930    13.2560 os         1 UTN      -0.243200
     44 C19         37.3330    -5.1830    10.7070 c3         1 UTN      -0.054800
@<TRIPOS>BOND
     1     1     2 1   
     2     1    10 1   
     3     1    20 1   
     4     2     3 ar  
     5     2     9 ar  
     6     3     4 ar  
     7     3    18 1   
     8     4     5 ar  
     9     4    29 1   
    10     5    15 ar  
    11     5    16 1   
    12     6    12 ar  
    13     6    14 ar  
    14     6    43 1   
    15     7    12 ar  
    16     7    13 ar  
    17     7    30 1   
    18     8    13 ar  
    19     8    14 ar  
    20     8    31 1   
    21     9    15 ar  
    22     9    32 1   
    23    10    27 1   
    24    10    28 2   
    25    11    22 2   
    26    11    23 1   
    27    11    27 1   
    28    12    44 1   
    29    13    36 1   
    30    14    37 1   
    31    15    43 1   
    32    16    17 3   
    33    18    19 1   
    34    19    38 1   
    35    19    39 1   
    36    19    40 1   
    37    20    21 2   
    38    20    22 1   
    39    22    41 1   
    40    23    24 1   
    41    23    25 1   
    42    23    26 1   
    43    27    42 1   
    44    33    44 1   
    45    34    44 1   
    46    35    44 1   
@<TRIPOS>SUBSTRUCTURE
     1 UTN         1 TEMP              0 ****  ****    0 ROOT
