@<TRIPOS>MOLECULE
UTO
   34    36     1     0     0
SMALL
abcg2


@<TRIPOS>ATOM
      1 C2          33.0850   -26.5010   184.9680 c          1 UTO       0.635700
      2 C3          32.3660   -27.7060   185.4960 ca         1 UTO      -0.197600
      3 C9          33.1420   -33.2620   188.1860 cc         1 UTO       0.444000
      4 C10         34.1700   -33.6150   189.1730 ca         1 UTO       0.315000
      5 C12         35.2300   -33.1080   191.1370 ca         1 UTO       0.332900
      6 C13         36.0600   -34.2200   191.0410 ca         1 UTO      -0.154000
      7 C14         35.9170   -35.0560   189.9430 ca         1 UTO      -0.079000
      8 C15         34.9560   -34.7530   188.9890 ca         1 UTO      -0.122000
      9 N18         32.2360   -30.1030   185.4840 nb         1 UTO      -0.654000
     10 C19         32.7940   -28.9680   185.0760 ca         1 UTO       0.394900
     11 C22         30.7470   -28.8300   186.8570 ca         1 UTO      -0.147000
     12 O1          34.2820   -26.5460   184.6960 o          1 UTO      -0.552100
     13 C4          31.3190   -27.6460   186.4100 ca         1 UTO      -0.051000
     14 C5          31.2290   -30.0340   186.3600 ca         1 UTO       0.334300
     15 C6          30.6050   -31.3450   186.7760 c3         1 UTO       0.051300
     16 N7          31.6130   -32.3180   187.1690 na         1 UTO       0.234600
     17 N8          32.3560   -32.1900   188.2530 nd         1 UTO      -0.472800
     18 N11         34.3030   -32.8030   190.2300 nb         1 UTO      -0.642000
     19 N16         32.8670   -34.0020   187.0830 nc         1 UTO      -0.382000
     20 N17         31.9010   -33.3870   186.4520 nd         1 UTO      -0.161800
     21 N20         32.3060   -25.4070   184.8190 ns         1 UTO      -0.411300
     22 N21         32.8270   -24.1930   184.3550 n8         1 UTO      -0.716200
     23 H1          35.3150   -32.4320   191.9820 h4         1 UTO       0.022100
     24 H2          36.7960   -34.4180   191.8090 ha         1 UTO       0.125000
     25 H3          36.5420   -35.9320   189.8280 ha         1 UTO       0.123000
     26 H4          34.8110   -35.3780   188.1200 ha         1 UTO       0.145000
     27 H5          33.6160   -29.0470   184.3750 h4         1 UTO       0.049100
     28 H6          29.9460   -28.8190   187.5830 ha         1 UTO       0.130000
     29 H7          30.9660   -26.6990   186.7970 ha         1 UTO       0.122000
     30 H8          29.9210   -31.2070   187.6100 h1         1 UTO       0.089700
     31 H9          30.0650   -31.7910   185.9420 h1         1 UTO       0.089700
     32 H10         31.3090   -25.4840   184.9650 hn         1 UTO       0.300500
     33 H11         32.3910   -23.9650   183.4660 hn         1 UTO       0.401000
     34 H12         32.5890   -23.4630   185.0180 hn         1 UTO       0.401000
@<TRIPOS>BOND
     1     1     2 1   
     2     1    12 2   
     3     1    21 1   
     4     2    10 ar  
     5     2    13 ar  
     6     3     4 1   
     7     3    17 2   
     8     3    19 1   
     9     4     8 ar  
    10     4    18 ar  
    11     5     6 ar  
    12     5    18 ar  
    13     5    23 1   
    14     6     7 ar  
    15     6    24 1   
    16     7     8 ar  
    17     7    25 1   
    18     8    26 1   
    19     9    10 ar  
    20     9    14 ar  
    21    10    27 1   
    22    11    13 ar  
    23    11    14 ar  
    24    11    28 1   
    25    13    29 1   
    26    14    15 1   
    27    15    16 1   
    28    15    30 1   
    29    15    31 1   
    30    16    17 1   
    31    16    20 1   
    32    19    20 2   
    33    21    22 1   
    34    21    32 1   
    35    22    33 1   
    36    22    34 1   
@<TRIPOS>SUBSTRUCTURE
     1 UTO         1 TEMP              0 ****  ****    0 ROOT
