@<TRIPOS>MOLECULE
UTO
   34    36     1     0     0
SMALL
No Charge or Current Charge


@<TRIPOS>ATOM
      1 C2          32.0460   -26.3570   184.2040 c          1 UTO       0.635700
      2 C3          31.7760   -27.6760   184.8730 ca         1 UTO      -0.197600
      3 C9          33.3770   -33.1060   188.2690 cc         1 UTO       0.444000
      4 C10         34.1250   -33.5640   189.4790 ca         1 UTO       0.315000
      5 C12         34.3060   -33.6780   191.8150 ca         1 UTO       0.332900
      6 C13         35.5020   -34.4070   191.7420 ca         1 UTO      -0.154000
      7 C14         36.0280   -34.7270   190.4820 ca         1 UTO      -0.079000
      8 C15         35.3290   -34.2990   189.3410 ca         1 UTO      -0.122000
      9 N18         30.8850   -29.9230   184.6220 nb         1 UTO      -0.654000
     10 C19         31.1720   -28.6980   184.1200 ca         1 UTO       0.394900
     11 C22         31.8000   -29.2140   186.7420 ca         1 UTO      -0.147000
     12 O1          31.7540   -26.1540   183.0320 o          1 UTO      -0.552100
     13 C4          32.0980   -27.9440   186.2230 ca         1 UTO      -0.051000
     14 C5          31.1970   -30.1780   185.9140 ca         1 UTO       0.334300
     15 C6          30.8600   -31.5630   186.4390 c3         1 UTO       0.051300
     16 N7          32.0230   -32.2770   186.9790 na         1 UTO       0.234600
     17 N8          32.2500   -32.4200   188.3130 nd         1 UTO      -0.472800
     18 N11         33.6300   -33.2640   190.7190 nb         1 UTO      -0.642000
     19 N16         33.8340   -33.3800   187.0070 nc         1 UTO      -0.382000
     20 N17         32.9740   -32.8540   186.1840 nd         1 UTO      -0.161800
     21 N20         32.6490   -25.3680   184.9890 ns         1 UTO      -0.411300
     22 N21         32.9940   -24.0210   184.5320 n8         1 UTO      -0.716200
     23 H1          33.8750   -33.4160   192.7800 h4         1 UTO       0.022100
     24 H2          36.0080   -34.7170   192.6520 ha         1 UTO       0.125000
     25 H3          36.9540   -35.2920   190.3910 ha         1 UTO       0.123000
     26 H4          35.7230   -34.5380   188.3570 ha         1 UTO       0.145000
     27 H5          30.9020   -28.5440   183.0750 h4         1 UTO       0.049100
     28 H6          32.0340   -29.4490   187.7770 ha         1 UTO       0.130000
     29 H7          32.5660   -27.2020   186.8670 ha         1 UTO       0.122000
     30 H8          30.1060   -31.4690   187.2280 h1         1 UTO       0.089700
     31 H9          30.4270   -32.1700   185.6350 h1         1 UTO       0.089700
     32 H10         32.8560   -25.6260   185.9530 hn         1 UTO       0.300500
     33 H11         32.5140   -23.2970   185.0880 hn         1 UTO       0.401000
     34 H12         34.0050   -23.8380   184.6230 hn         1 UTO       0.401000
@<TRIPOS>BOND
     1     1     2 1   
     2     1    12 2   
     3     1    21 1   
     4     2    10 ar  
     5     2    13 ar  
     6     3     4 1   
     7     3    17 2   
     8     3    19 1   
     9     4     8 ar  
    10     4    18 ar  
    11     5     6 ar  
    12     5    18 ar  
    13     5    23 1   
    14     6     7 ar  
    15     6    24 1   
    16     7     8 ar  
    17     7    25 1   
    18     8    26 1   
    19     9    10 ar  
    20     9    14 ar  
    21    10    27 1   
    22    11    13 ar  
    23    11    14 ar  
    24    11    28 1   
    25    13    29 1   
    26    14    15 1   
    27    15    16 1   
    28    15    30 1   
    29    15    31 1   
    30    16    17 1   
    31    16    20 1   
    32    19    20 2   
    33    21    22 1   
    34    21    32 1   
    35    22    33 1   
    36    22    34 1   
@<TRIPOS>SUBSTRUCTURE
     1 UTO         1 TEMP              0 ****  ****    0 ROOT
