@<TRIPOS>MOLECULE
UTQ
   33    34     1     0     0
SMALL
No Charge or Current Charge


@<TRIPOS>ATOM
      1 C4           4.2070    12.0540   126.7830 ca         1 UTQ      -0.029000
      2 C5           5.5070    11.8340   123.9020 c          1 UTQ       0.589200
      3 C6           5.6780    14.2030   124.5450 c          1 UTQ       0.628000
      4 C7           6.4590    12.1660   128.4680 ca         1 UTQ      -0.217000
      5 C10          5.6310    12.2860   122.5110 cc         1 UTQ      -0.307200
      6 N12          5.7900    14.5070   123.2170 ns         1 UTQ      -0.512600
      7 C17          5.7740    13.6080   122.1690 cd         1 UTQ      -0.007600
      8 O8           7.7850    12.9260   126.5580 os         1 UTQ      -0.333100
      9 C3           6.5780    12.5300   127.1080 ca         1 UTQ       0.181100
     10 C14          5.2130    11.7480   128.9860 ca         1 UTQ       0.165100
     11 O18          5.0540    11.3830   130.3120 os         1 UTQ      -0.353100
     12 C9           4.0890    11.6930   128.1340 ca         1 UTQ       0.060000
     13 Cl1          2.5170    11.1710   128.7440 cl         1 UTQ      -0.177000
     14 C1           5.4440    12.4770   126.2660 ca         1 UTQ      -0.004400
     15 N2           5.5400    12.8470   124.8770 n          1 UTQ      -0.284600
     16 C19          5.9140    14.1780   120.7590 c3         1 UTQ       0.356200
     17 F22          5.9000    13.2150   119.8100 f          1 UTQ      -0.098333
     18 F23          4.9080    15.0340   120.4650 f          1 UTQ      -0.098333
     19 F21          7.0720    14.8610   120.6090 f          1 UTQ      -0.098333
     20 O13          5.6850    15.0960   125.3760 o          1 UTQ      -0.524000
     21 H1           3.3340    12.0090   126.1380 ha         1 UTQ       0.141000
     22 H2           7.3270    12.2060   129.1160 ha         1 UTQ       0.134000
     23 H3           5.6050    11.4940   121.7710 ha         1 UTQ       0.239000
     24 H4           5.8870    15.5040   123.0460 hn         1 UTQ       0.473000
     25 H5           9.8250    13.3570   126.6940 h1         1 UTQ       0.047367
     26 H6           8.8820    13.7440   128.1470 h1         1 UTQ       0.047367
     27 H7           9.2670    12.0460   127.7530 h1         1 UTQ       0.047367
     28 H8           5.7850    11.0800   132.2450 h1         1 UTQ       0.040700
     29 H9           6.9430    10.7290   130.9460 h1         1 UTQ       0.040700
     30 H10          6.5450    12.4190   131.3610 h1         1 UTQ       0.040700
     31 O11          5.3850    10.6510   124.1880 o          1 UTQ      -0.486000
     32 C15          8.9960    13.0210   127.3290 c3         1 UTQ       0.147900
     33 C20          6.1370    11.4060   131.2580 c3         1 UTQ       0.151900
@<TRIPOS>BOND
     1     1    12 ar  
     2     1    14 ar  
     3     1    21 1   
     4     2     5 1   
     5     2    15 1   
     6     2    31 2   
     7     3     6 1   
     8     3    15 1   
     9     3    20 2   
    10     4     9 ar  
    11     4    10 ar  
    12     4    22 1   
    13     5     7 2   
    14     5    23 1   
    15     6     7 1   
    16     6    24 1   
    17     7    16 1   
    18     8     9 1   
    19     8    32 1   
    20     9    14 ar  
    21    10    11 1   
    22    10    12 ar  
    23    11    33 1   
    24    12    13 1   
    25    14    15 1   
    26    16    17 1   
    27    16    18 1   
    28    16    19 1   
    29    25    32 1   
    30    26    32 1   
    31    27    32 1   
    32    28    33 1   
    33    29    33 1   
    34    30    33 1   
@<TRIPOS>SUBSTRUCTURE
     1 UTQ         1 TEMP              0 ****  ****    0 ROOT
