@<TRIPOS>MOLECULE
UTQ
   33    34     1     0     0
SMALL
abcg2


@<TRIPOS>ATOM
      1 C4           4.3490    12.1340   126.9110 ca         1 UTQ      -0.029000
      2 C5           5.6880    11.8740   123.9560 c          1 UTQ       0.589200
      3 C6           5.5800    14.2270   124.7140 c          1 UTQ       0.628000
      4 C7           6.7400    11.8160   128.2870 ca         1 UTQ      -0.217000
      5 C10          5.7630    12.3710   122.5960 cc         1 UTQ      -0.307200
      6 N12          5.6610    14.5890   123.3930 ns         1 UTQ      -0.512600
      7 C17          5.7530    13.6900   122.3730 cd         1 UTQ      -0.007600
      8 O8           7.8620    12.5890   126.2900 os         1 UTQ      -0.333100
      9 C3           6.7590    12.2790   126.9770 ca         1 UTQ       0.181100
     10 C14          5.5350    11.5040   128.9080 ca         1 UTQ       0.165100
     11 O18          5.5290    11.0080   130.1640 os         1 UTQ      -0.353100
     12 C9           4.3390    11.6800   128.2210 ca         1 UTQ       0.060000
     13 CL1          2.8450    11.3040   129.0010 cl         1 UTQ      -0.177000
     14 C1           5.5470    12.4310   126.2970 ca         1 UTQ      -0.004400
     15 N2           5.5720    12.8610   124.9410 n          1 UTQ      -0.284600
     16 C19          5.8530    14.2790   120.9880 c3         1 UTQ       0.356200
     17 F22          5.9650    13.3360   120.0630 f          1 UTQ      -0.098333
     18 F23          4.7740    15.0110   120.7060 f          1 UTQ      -0.098333
     19 F21          6.9170    15.0770   120.8940 f          1 UTQ      -0.098333
     20 O13          5.5170    15.0400   125.6040 o          1 UTQ      -0.524000
     21 H1           3.4220    12.2570   126.3660 ha         1 UTQ       0.141000
     22 H2           7.6540    11.6680   128.8470 ha         1 UTQ       0.134000
     23 H3           5.8390    11.6490   121.7990 ha         1 UTQ       0.239000
     24 H4           5.6610    15.5860   123.2210 hn         1 UTQ       0.473000
     25 H5           9.8640    12.7930   126.2100 h1         1 UTQ       0.047367
     26 H6           9.1810    13.1200   127.8140 h1         1 UTQ       0.047367
     27 H7           9.3280    11.4450   127.2310 h1         1 UTQ       0.047367
     28 H8           5.5480    11.4550   132.1420 h1         1 UTQ       0.040700
     29 H9           6.4900    12.5800   131.1450 h1         1 UTQ       0.040700
     30 H10          4.7140    12.6630   131.1440 h1         1 UTQ       0.040700
     31 O11          5.7200    10.7030   124.2570 o          1 UTQ      -0.486000
     32 C15          9.1200    12.4750   126.9350 c3         1 UTQ       0.147900
     33 C20          5.5730    11.9900   131.1950 c3         1 UTQ       0.151900
@<TRIPOS>BOND
     1     1    12 ar  
     2     1    14 ar  
     3     1    21 1   
     4     2     5 1   
     5     2    15 1   
     6     2    31 2   
     7     3     6 1   
     8     3    15 1   
     9     3    20 2   
    10     4     9 ar  
    11     4    10 ar  
    12     4    22 1   
    13     5     7 2   
    14     5    23 1   
    15     6     7 1   
    16     6    24 1   
    17     7    16 1   
    18     8     9 1   
    19     8    32 1   
    20     9    14 ar  
    21    10    11 1   
    22    10    12 ar  
    23    11    33 1   
    24    12    13 1   
    25    14    15 1   
    26    16    17 1   
    27    16    18 1   
    28    16    19 1   
    29    25    32 1   
    30    26    32 1   
    31    27    32 1   
    32    28    33 1   
    33    29    33 1   
    34    30    33 1   
@<TRIPOS>SUBSTRUCTURE
     1 UTQ         1 TEMP              0 ****  ****    0 ROOT
