@<TRIPOS>MOLECULE
UTS
   28    30     1     0     0
SMALL
No Charge or Current Charge


@<TRIPOS>ATOM
      1 C1          51.4990    31.8910    27.6240 ca         1 UTS      -0.098000
      2 C2          51.7120    33.2250    27.2400 ca         1 UTS      -0.109000
      3 C3          50.6000    31.5970    28.6620 ca         1 UTS      -0.109000
      4 C4          53.2690    37.0160    32.5660 ca         1 UTS      -0.136000
      5 C5          52.7150    35.7150    32.6200 ca         1 UTS      -0.097000
      6 C6          51.0300    34.2650    27.8950 ca         1 UTS      -0.091000
      7 C7          49.9170    32.6360    29.3180 ca         1 UTS      -0.091000
      8 C8          52.7670    37.9710    31.6540 ca         1 UTS      -0.049000
      9 C9          51.6530    35.3590    31.7640 ca         1 UTS      -0.108000
     10 C10         50.1430    37.5410    29.3220 cc         1 UTS       0.415700
     11 C11         50.1290    33.9780    28.9430 ca         1 UTS      -0.117300
     12 C12         51.7100    37.5960    30.8110 ca         1 UTS       0.064400
     13 C13         51.1820    36.3370    30.8750 ca         1 UTS      -0.077200
     14 C14         49.3770    35.0950    29.6660 c3         1 UTS       0.130900
     15 N15         51.0730    38.3720    29.8430 nd         1 UTS      -0.572100
     16 N16         50.1890    36.2910    29.9420 na         1 UTS      -0.183600
     17 H1          52.0270    31.0870    27.1170 ha         1 UTS       0.115000
     18 H2          52.4060    33.4540    26.4340 ha         1 UTS       0.116500
     19 H3          50.4320    30.5640    28.9600 ha         1 UTS       0.116500
     20 H5          53.1110    34.9860    33.3250 ha         1 UTS       0.110000
     21 H6          51.2030    35.2930    27.5830 ha         1 UTS       0.114000
     22 H7          49.2220    32.3960    30.1210 ha         1 UTS       0.114000
     23 H8          53.1880    38.9720    31.6040 ha         1 UTS       0.127000
     24 H9          51.2210    34.3610    31.7940 ha         1 UTS       0.118000
     25 H10         49.4400    37.7730    28.5300 h5         1 UTS       0.058800
     26 H11         48.5150    35.3930    29.0540 h1         1 UTS       0.063200
     27 H12         48.9830    34.7200    30.6190 h1         1 UTS       0.063200
     28 H4          54.0890    37.2840    33.2290 ha         1 UTS       0.112000
@<TRIPOS>BOND
     1     1     2 ar  
     2     1     3 ar  
     3     1    17 1   
     4     2     6 ar  
     5     2    18 1   
     6     3     7 ar  
     7     3    19 1   
     8     4     5 ar  
     9     4     8 ar  
    10     4    28 1   
    11     5     9 ar  
    12     5    20 1   
    13     6    11 ar  
    14     6    21 1   
    15     7    11 ar  
    16     7    22 1   
    17     8    12 ar  
    18     8    23 1   
    19     9    13 ar  
    20     9    24 1   
    21    10    15 2   
    22    10    16 1   
    23    10    25 1   
    24    11    14 1   
    25    12    13 ar  
    26    12    15 1   
    27    13    16 1   
    28    14    16 1   
    29    14    26 1   
    30    14    27 1   
@<TRIPOS>SUBSTRUCTURE
     1 UTS         1 TEMP              0 ****  ****    0 ROOT
