@<TRIPOS>MOLECULE
UTS
   28    30     1     0     0
SMALL
bcc


@<TRIPOS>ATOM
      1 C1          51.5290    31.9470    27.6940 ca         1 UTS      -0.116000
      2 C2          51.5660    33.2240    27.1450 ca         1 UTS      -0.127000
      3 C3          50.7850    31.7130    28.8410 ca         1 UTS      -0.127000
      4 C4          53.2200    36.9280    32.5830 ca         1 UTS      -0.154000
      5 C5          52.6560    35.6420    32.6090 ca         1 UTS      -0.115000
      6 C6          50.8630    34.2590    27.7420 ca         1 UTS      -0.109000
      7 C7          50.0840    32.7530    29.4390 ca         1 UTS      -0.109000
      8 C8          52.7710    37.8940    31.7010 ca         1 UTS      -0.067000
      9 C9          51.6290    35.2840    31.7540 ca         1 UTS      -0.126000
     10 C10         50.2120    37.5050    29.3570 cc         1 UTS       0.415700
     11 C11         50.1170    34.0320    28.8960 ca         1 UTS      -0.117300
     12 C12         51.7360    37.5530    30.8300 ca         1 UTS       0.064400
     13 C13         51.1840    36.2620    30.8700 ca         1 UTS      -0.077200
     14 C14         49.3510    35.1560    29.5470 c3         1 UTS       0.101600
     15 N15         51.1020    38.3050    29.8690 nd         1 UTS      -0.572100
     16 N16         50.2030    36.2660    29.9120 na         1 UTS      -0.154300
     17 H1          52.0810    31.1410    27.2290 ha         1 UTS       0.133000
     18 H2          52.1420    33.4120    26.2490 ha         1 UTS       0.134500
     19 H3          50.7520    30.7220    29.2760 ha         1 UTS       0.134500
     20 H5          53.0350    34.9140    33.3140 ha         1 UTS       0.128000
     21 H6          50.9000    35.2510    27.3050 ha         1 UTS       0.132000
     22 H7          49.5110    32.5680    30.3410 ha         1 UTS       0.132000
     23 H8          53.2060    38.8850    31.6850 ha         1 UTS       0.145000
     24 H9          51.2040    34.2890    31.7780 ha         1 UTS       0.136000
     25 H10         49.5210    37.7630    28.5660 h5         1 UTS       0.058800
     26 H11         48.5860    35.5430    28.8730 h1         1 UTS       0.063200
     27 H12         48.8340    34.7950    30.4380 h1         1 UTS       0.063200
     28 H4          54.0220    37.1630    33.2700 ha         1 UTS       0.130000
@<TRIPOS>BOND
     1     1     2 ar  
     2     1     3 ar  
     3     1    17 1   
     4     2     6 ar  
     5     2    18 1   
     6     3     7 ar  
     7     3    19 1   
     8     4     5 ar  
     9     4     8 ar  
    10     4    28 1   
    11     5     9 ar  
    12     5    20 1   
    13     6    11 ar  
    14     6    21 1   
    15     7    11 ar  
    16     7    22 1   
    17     8    12 ar  
    18     8    23 1   
    19     9    13 ar  
    20     9    24 1   
    21    10    15 2   
    22    10    16 1   
    23    10    25 1   
    24    11    14 1   
    25    12    13 ar  
    26    12    15 1   
    27    13    16 1   
    28    14    16 1   
    29    14    26 1   
    30    14    27 1   
@<TRIPOS>SUBSTRUCTURE
     1 UTS         1 TEMP              0 ****  ****    0 ROOT
