@<TRIPOS>MOLECULE
UTT
   40    42     1     0     0
SMALL
No Charge or Current Charge


@<TRIPOS>ATOM
      1 N3         -39.8520     1.4760    12.4670 n          1 UTT       0.128000
      2 C5         -41.1630     0.8810    14.0490 cc         1 UTT       0.577900
      3 C7         -42.6810    -1.1000    14.4160 c3         1 UTT       0.280100
      4 C8         -43.6180    -1.5530    15.5230 ca         1 UTT      -0.191300
      5 C10        -44.0160    -2.7940    17.5900 ca         1 UTT      -0.165500
      6 C13        -44.9750    -1.1710    15.5170 ca         1 UTT       0.219000
      7 C17        -39.0630     1.6710    11.3280 c          1 UTT       0.558000
      8 C22        -36.1710     5.0550    13.3450 c3         1 UTT      -0.073400
      9 N26        -41.0810     3.3450    16.7060 n1         1 UTT      -0.482000
     10 C1         -40.6160     2.1010    14.4920 cc         1 UTT      -0.249000
     11 C2         -39.8130     2.4060    13.4540 cd         1 UTT       0.319000
     12 N20        -39.0610     3.5640    13.4730 na         1 UTT      -0.792000
     13 C19        -38.2260     3.8710    12.3960 cc         1 UTT       0.184800
     14 C23        -35.1560     3.9550    12.9710 c3         1 UTT      -0.095100
     15 C18        -38.2630     2.9240    11.3770 cd         1 UTT      -0.380200
     16 O24        -39.0260     0.8930    10.3810 o          1 UTT      -0.471000
     17 N4         -40.7530     0.4590    12.8640 nd         1 UTT      -0.552800
     18 N6         -42.0590     0.1740    14.7910 nu         1 UTT      -0.910100
     19 C9         -43.1510    -2.3710    16.5710 ca         1 UTT       0.219000
     20 F16        -41.8560    -2.7600    16.6080 f          1 UTT      -0.163000
     21 C11        -45.3610    -2.4030    17.5710 ca         1 UTT       0.177000
     22 Cl1        -46.4480    -2.9320    18.8480 cl         1 UTT      -0.180000
     23 C12        -45.8420    -1.5920    16.5350 ca         1 UTT      -0.165500
     24 F14        -45.4600    -0.3880    14.5270 f          1 UTT      -0.163000
     25 H1         -43.2380    -0.9900    13.4750 h1         1 UTT       0.074200
     26 H2         -41.9100    -1.8640    14.2420 h1         1 UTT       0.074200
     27 H3         -43.6420    -3.4240    18.3920 ha         1 UTT       0.155500
     28 H4         -37.0430     5.3370    11.3800 hc         1 UTT       0.069700
     29 H5         -38.0180     5.9750    12.6870 hc         1 UTT       0.069700
     30 H6         -35.6600     6.0260    13.3340 hc         1 UTT       0.046200
     31 H7         -36.5150     4.8930    14.3740 hc         1 UTT       0.046200
     32 H8         -34.2970     3.9810    13.6520 hc         1 UTT       0.041700
     33 H9         -35.6130     2.9600    13.0390 hc         1 UTT       0.041700
     34 H10        -34.7870     4.0980    11.9480 hc         1 UTT       0.041700
     35 H11        -37.6530     3.0630    10.4940 ha         1 UTT       0.225000
     36 H13        -42.3080     0.5860    15.6880 hn         1 UTT       0.492000
     37 H14        -46.8850    -1.2890    16.5190 ha         1 UTT       0.155500
     38 H15        -39.1160     4.1890    14.2760 hn         1 UTT       0.531000
     39 C21        -37.3910     5.1230    12.3980 c3         1 UTT      -0.058200
     40 C25        -40.8800     2.7720    15.7100 cg         1 UTT       0.367000
@<TRIPOS>BOND
     1     1     7 1   
     2     1    11 1   
     3     1    17 1   
     4     2    10 1   
     5     2    17 2   
     6     2    18 1   
     7     3     4 1   
     8     3    18 1   
     9     3    25 1   
    10     3    26 1   
    11     4     6 ar  
    12     4    19 ar  
    13     5    19 ar  
    14     5    21 ar  
    15     5    27 1   
    16     6    23 ar  
    17     6    24 1   
    18     7    15 1   
    19     7    16 2   
    20     8    14 1   
    21     8    30 1   
    22     8    31 1   
    23     8    39 1   
    24     9    40 3   
    25    10    11 2   
    26    10    40 1   
    27    11    12 1   
    28    12    13 1   
    29    12    38 1   
    30    13    15 2   
    31    13    39 1   
    32    14    32 1   
    33    14    33 1   
    34    14    34 1   
    35    15    35 1   
    36    18    36 1   
    37    19    20 1   
    38    21    22 1   
    39    21    23 ar  
    40    23    37 1   
    41    28    39 1   
    42    29    39 1   
@<TRIPOS>SUBSTRUCTURE
     1 UTT         1 TEMP              0 ****  ****    0 ROOT
