@<TRIPOS>MOLECULE
UTT
   40    42     1     0     0
SMALL
abcg2


@<TRIPOS>ATOM
      1 N3         -39.9080     1.7140    12.7560 n          1 UTT       0.128000
      2 C5         -41.2140     1.1070    14.3430 cc         1 UTT       0.577900
      3 C7         -42.5260    -0.9350    14.5830 c3         1 UTT       0.280100
      4 C8         -43.5280    -1.5330    15.5250 ca         1 UTT      -0.191300
      5 C10        -44.0700    -3.0120    17.4000 ca         1 UTT      -0.165500
      6 C13        -44.8800    -1.2050    15.4800 ca         1 UTT       0.219000
      7 C17        -39.2140     1.6990    11.5290 c          1 UTT       0.558000
      8 C22        -36.1700     4.9850    13.1540 c3         1 UTT      -0.073400
      9 N26        -41.0690     3.6700    16.8980 n1         1 UTT      -0.482000
     10 C1         -40.6290     2.3580    14.7490 cc         1 UTT      -0.249000
     11 C2         -39.7950     2.6990    13.6870 cd         1 UTT       0.319000
     12 N20        -38.9770     3.7460    13.4530 na         1 UTT      -0.792000
     13 C19        -38.2530     3.8320    12.2920 cc         1 UTT       0.184800
     14 C23        -35.2530     3.7800    12.9680 c3         1 UTT      -0.095100
     15 C18        -38.3650     2.8490    11.3600 cd         1 UTT      -0.380200
     16 O24        -39.3600     0.7750    10.7390 o          1 UTT      -0.471000
     17 N4         -40.7770     0.7220    13.1520 nd         1 UTT      -0.552800
     18 N6         -42.1320     0.3970    15.0410 nu         1 UTT      -0.910100
     19 C9         -43.1730    -2.4410    16.5160 ca         1 UTT       0.219000
     20 F16        -41.8730    -2.7900    16.6260 f          1 UTT      -0.163000
     21 C11        -45.4020    -2.6420    17.2880 ca         1 UTT       0.177000
     22 CL1        -46.5670    -3.3310    18.3840 cl         1 UTT      -0.180000
     23 C12        -45.8330    -1.7340    16.3300 ca         1 UTT      -0.165500
     24 F14        -45.2870    -0.3190    14.5480 f          1 UTT      -0.163000
     25 H1         -42.9620    -0.8430    13.5880 h1         1 UTT       0.074200
     26 H2         -41.6570    -1.5910    14.5010 h1         1 UTT       0.074200
     27 H3         -43.7320    -3.7160    18.1460 ha         1 UTT       0.155500
     28 H4         -36.9690     5.0430    11.1410 hc         1 UTT       0.069700
     29 H5         -37.9350     5.9240    12.3250 hc         1 UTT       0.069700
     30 H6         -35.6040     5.9090    13.0150 hc         1 UTT       0.046200
     31 H7         -36.5510     5.0090    14.1780 hc         1 UTT       0.046200
     32 H8         -34.4080     3.8280    13.6570 hc         1 UTT       0.041700
     33 H9         -35.7820     2.8430    13.1520 hc         1 UTT       0.041700
     34 H10        -34.8570     3.7450    11.9500 hc         1 UTT       0.041700
     35 H11        -37.7940     2.9070    10.4470 ha         1 UTT       0.225000
     36 H13        -42.1750     0.5630    16.0350 hn         1 UTT       0.492000
     37 H14        -46.8690    -1.4430    16.2420 ha         1 UTT       0.155500
     38 H15        -38.9090     4.4790    14.1460 hn         1 UTT       0.531000
     39 C21        -37.3480     5.0150    12.1620 c3         1 UTT      -0.058200
     40 C25        -40.8620     3.0820    15.9230 cg         1 UTT       0.367000
@<TRIPOS>BOND
     1     1     7 1   
     2     1    11 1   
     3     1    17 1   
     4     2    10 1   
     5     2    17 2   
     6     2    18 1   
     7     3     4 1   
     8     3    18 1   
     9     3    25 1   
    10     3    26 1   
    11     4     6 ar  
    12     4    19 ar  
    13     5    19 ar  
    14     5    21 ar  
    15     5    27 1   
    16     6    23 ar  
    17     6    24 1   
    18     7    15 1   
    19     7    16 2   
    20     8    14 1   
    21     8    30 1   
    22     8    31 1   
    23     8    39 1   
    24     9    40 3   
    25    10    11 2   
    26    10    40 1   
    27    11    12 1   
    28    12    13 1   
    29    12    38 1   
    30    13    15 2   
    31    13    39 1   
    32    14    32 1   
    33    14    33 1   
    34    14    34 1   
    35    15    35 1   
    36    18    36 1   
    37    19    20 1   
    38    21    22 1   
    39    21    23 ar  
    40    23    37 1   
    41    28    39 1   
    42    29    39 1   
@<TRIPOS>SUBSTRUCTURE
     1 UTT         1 TEMP              0 ****  ****    0 ROOT
