@<TRIPOS>MOLECULE
UTV
   40    42     1     0     0
SMALL
No Charge or Current Charge


@<TRIPOS>ATOM
      1 C4          21.6410    14.8100   -11.8910 ca         1 UTV      -0.111300
      2 C5          22.8330    14.2650   -12.4180 ca         1 UTV      -0.075000
      3 C6          23.4720    14.8690   -13.5120 ca         1 UTV      -0.121000
      4 C7          22.9240    16.0190   -14.0980 ca         1 UTV      -0.083000
      5 C8          21.7350    16.5670   -13.5900 ca         1 UTV      -0.165000
      6 C10         19.3300    17.7110   -12.4140 c3         1 UTV       0.398300
      7 C13         24.3610    15.6420    -8.2150 ca         1 UTV      -0.033000
      8 C15         24.5080    13.3380    -7.3960 ca         1 UTV       0.011000
      9 C17         22.7790    11.6850    -8.3980 c          1 UTV       0.594700
     10 O1          23.1210    10.6530    -7.8290 o          1 UTV      -0.517100
     11 C1          21.6070    11.9290    -9.4460 c5         1 UTV       0.138200
     12 C2          20.2310    11.6840    -8.7800 c3         1 UTV      -0.090600
     13 C           21.7830    11.0170   -10.6850 c3         1 UTV      -0.090600
     14 C16         23.4340    13.0120    -8.2370 ca         1 UTV      -0.282600
     15 C14         24.9700    14.6690    -7.3920 ca         1 UTV      -0.189000
     16 C12         23.2830    15.2860    -9.0500 ca         1 UTV      -0.194000
     17 C11         22.8420    13.9560    -9.0440 ca         1 UTV       0.365000
     18 N           21.8090    13.3790    -9.7780 nh         1 UTV      -0.824400
     19 C3          20.9370    14.1540   -10.6970 c3         1 UTV       0.293100
     20 C9          21.0880    15.9670   -12.4850 ca         1 UTV       0.123100
     21 O           19.9070    16.4700   -11.9700 os         1 UTV      -0.402100
     22 F1          20.1020    18.7590   -12.0440 f          1 UTV      -0.113500
     23 F           18.1260    17.8990   -11.8280 f          1 UTV      -0.113500
     24 H1          23.2720    13.3730   -11.9780 ha         1 UTV       0.132000
     25 H2          24.3910    14.4430   -13.9070 ha         1 UTV       0.122000
     26 H3          23.4190    16.4850   -14.9480 ha         1 UTV       0.120000
     27 H4          21.3300    17.4530   -14.0710 ha         1 UTV       0.129000
     28 H5          19.1990    17.7200   -13.5000 h3         1 UTV       0.062700
     29 H6          24.7230    16.6680    -8.2040 ha         1 UTV       0.111000
     30 H7          24.9720    12.5850    -6.7610 ha         1 UTV       0.126000
     31 H8          20.0940    12.3340    -7.9080 hc         1 UTV       0.050033
     32 H9          19.4060    11.8810    -9.4760 hc         1 UTV       0.050033
     33 H10         20.1360    10.6460    -8.4390 hc         1 UTV       0.050033
     34 H11         21.6910     9.9590   -10.4120 hc         1 UTV       0.050033
     35 H12         21.0280    11.2300   -11.4510 hc         1 UTV       0.050033
     36 H13         22.7700    11.1540   -11.1400 hc         1 UTV       0.050033
     37 H14         25.8020    14.9490    -6.7490 ha         1 UTV       0.118000
     38 H15         22.8090    16.0280    -9.6830 ha         1 UTV       0.125000
     39 H16         20.4240    14.9280   -10.1100 h1         1 UTV       0.069200
     40 H17         20.1470    13.5030   -11.0950 h1         1 UTV       0.069200
@<TRIPOS>BOND
     1     1     2 ar  
     2     1    19 1   
     3     1    20 ar  
     4     2     3 ar  
     5     2    24 1   
     6     3     4 ar  
     7     3    25 1   
     8     4     5 ar  
     9     4    26 1   
    10     5    20 ar  
    11     5    27 1   
    12     6    21 1   
    13     6    22 1   
    14     6    23 1   
    15     6    28 1   
    16     7    15 ar  
    17     7    16 ar  
    18     7    29 1   
    19     8    14 ar  
    20     8    15 ar  
    21     8    30 1   
    22     9    10 2   
    23     9    11 1   
    24     9    14 1   
    25    11    12 1   
    26    11    13 1   
    27    11    18 1   
    28    12    31 1   
    29    12    32 1   
    30    12    33 1   
    31    13    34 1   
    32    13    35 1   
    33    13    36 1   
    34    14    17 ar  
    35    15    37 1   
    36    16    17 ar  
    37    16    38 1   
    38    17    18 1   
    39    18    19 1   
    40    19    39 1   
    41    19    40 1   
    42    20    21 1   
@<TRIPOS>SUBSTRUCTURE
     1 UTV         1 TEMP              0 ****  ****    0 ROOT
