@<TRIPOS>MOLECULE
UTV
   40    42     1     0     0
SMALL
bcc


@<TRIPOS>ATOM
      1 C4          21.8110    15.1550   -11.6730 ca         1 UTV      -0.111300
      2 C5          23.0530    14.7120   -12.1070 ca         1 UTV      -0.093000
      3 C6          23.5740    15.1090   -13.3320 ca         1 UTV      -0.139000
      4 C7          22.8540    15.9720   -14.1400 ca         1 UTV      -0.101000
      5 C8          21.6150    16.4440   -13.7240 ca         1 UTV      -0.183000
      6 C10         18.8710    16.6720   -12.8900 c3         1 UTV       0.617700
      7 C13         24.7540    15.1850    -7.7530 ca         1 UTV      -0.051000
      8 C15         24.5830    12.8130    -7.3870 ca         1 UTV      -0.007000
      9 C17         22.6360    11.7140    -8.6790 c          1 UTV       0.594700
     10 O1          22.7080    10.5330    -8.4070 o          1 UTV      -0.517100
     11 C1          21.5550    12.3260    -9.5820 c5         1 UTV       0.138200
     12 C2          20.2000    12.1610    -8.8930 c3         1 UTV      -0.090600
     13 C           21.5600    11.6620   -10.9540 c3         1 UTV      -0.090600
     14 C16         23.4850    12.8030    -8.2410 ca         1 UTV      -0.282600
     15 C14         25.2210    14.0130    -7.1390 ca         1 UTV      -0.207000
     16 C12         23.6670    15.1940    -8.6080 ca         1 UTV      -0.212000
     17 C11         23.0200    13.9770    -8.8530 ca         1 UTV       0.226600
     18 N           21.9510    13.7320    -9.6470 nh         1 UTV      -0.686000
     19 C3          21.2100    14.7390   -10.3460 c3         1 UTV       0.293100
     20 C9          21.1060    16.0260   -12.5040 ca         1 UTV       0.123100
     21 O           19.8940    16.4620   -12.0220 os         1 UTV      -0.378900
     22 F1          18.8620    17.9650   -13.2970 f          1 UTV      -0.234800
     23 F           17.7360    16.4850   -12.1980 f          1 UTV      -0.234800
     24 H1          23.6250    14.0370   -11.4850 ha         1 UTV       0.150000
     25 H2          24.5420    14.7440   -13.6470 ha         1 UTV       0.140000
     26 H3          23.2500    16.2940   -15.0930 ha         1 UTV       0.138000
     27 H4          21.0770    17.1440   -14.3500 ha         1 UTV       0.147000
     28 H5          18.8910    16.0230   -13.7690 h3         1 UTV       0.062700
     29 H6          25.2640    16.1190    -7.5550 ha         1 UTV       0.129000
     30 H7          24.9240    11.8940    -6.9250 ha         1 UTV       0.144000
     31 H8          20.1930    12.6390    -7.9120 hc         1 UTV       0.050033
     32 H9          19.3990    12.5970    -9.4920 hc         1 UTV       0.050033
     33 H10         19.9750    11.1030    -8.7630 hc         1 UTV       0.050033
     34 H11         21.2900    10.6110   -10.8570 hc         1 UTV       0.050033
     35 H12         20.8300    12.1320   -11.6150 hc         1 UTV       0.050033
     36 H13         22.5380    11.7220   -11.4310 hc         1 UTV       0.050033
     37 H14         26.0760    14.0560    -6.4800 ha         1 UTV       0.136000
     38 H15         23.3410    16.1160    -9.0710 ha         1 UTV       0.143000
     39 H16         21.1000    15.6180    -9.7030 h1         1 UTV       0.069200
     40 H17         20.1950    14.3710   -10.5050 h1         1 UTV       0.069200
@<TRIPOS>BOND
     1     1     2 ar  
     2     1    19 1   
     3     1    20 ar  
     4     2     3 ar  
     5     2    24 1   
     6     3     4 ar  
     7     3    25 1   
     8     4     5 ar  
     9     4    26 1   
    10     5    20 ar  
    11     5    27 1   
    12     6    21 1   
    13     6    22 1   
    14     6    23 1   
    15     6    28 1   
    16     7    15 ar  
    17     7    16 ar  
    18     7    29 1   
    19     8    14 ar  
    20     8    15 ar  
    21     8    30 1   
    22     9    10 2   
    23     9    11 1   
    24     9    14 1   
    25    11    12 1   
    26    11    13 1   
    27    11    18 1   
    28    12    31 1   
    29    12    32 1   
    30    12    33 1   
    31    13    34 1   
    32    13    35 1   
    33    13    36 1   
    34    14    17 ar  
    35    15    37 1   
    36    16    17 ar  
    37    16    38 1   
    38    17    18 1   
    39    18    19 1   
    40    19    39 1   
    41    19    40 1   
    42    20    21 1   
@<TRIPOS>SUBSTRUCTURE
     1 UTV         1 TEMP              0 ****  ****    0 ROOT
