@<TRIPOS>MOLECULE
UTY
   67    71     1     0     0
SMALL
No Charge or Current Charge


@<TRIPOS>ATOM
      1 N1          26.3060    23.8680    -8.7880 n          1 UTY      -0.399800
      2 N3          25.5510    18.9920    -7.2840 nb         1 UTY      -0.249500
      3 C4          26.3130    23.1750    -7.4590 c6         1 UTY       0.076000
      4 C5          26.6130    25.2440    -8.9240 c          1 UTY       0.561100
      5 C6          27.3420    25.9790    -7.7580 c3         1 UTY       0.088600
      6 C7          25.3350    19.6060    -8.4660 ca         1 UTY       0.398900
      7 C8          24.3340    17.7660    -9.4180 ca         1 UTY       0.172400
      8 C10         25.1460    17.7130    -7.1690 ca         1 UTY       0.172400
      9 C13         24.3090    13.3540    -7.1030 ca         1 UTY       0.015000
     10 C15         22.6100    11.5680    -7.9050 c          1 UTY       0.594700
     11 C20         21.2640    14.3360   -11.5990 ca         1 UTY      -0.120300
     12 C21         22.5090    13.8450   -12.0520 ca         1 UTY      -0.064000
     13 C22         23.0650    14.3860   -13.2200 ca         1 UTY      -0.144000
     14 C24         20.6270    15.3460   -12.3670 ca         1 UTY       0.428000
     15 C26         22.5670    13.7830    -8.7220 ca         1 UTY       0.365000
     16 N6          18.2960    16.3160   -11.6730 n1         1 UTY      -0.431000
     17 C25         19.3380    15.8880   -11.9900 cg         1 UTY       0.215000
     18 N5          21.1730    15.8620   -13.5010 nb         1 UTY      -0.631000
     19 C23         22.3700    15.3890   -13.9100 ca         1 UTY       0.337900
     20 N4          21.5320    13.1160    -9.3720 nh         1 UTY      -0.827400
     21 C16         21.3990    11.6890    -8.9280 c5         1 UTY       0.139200
     22 C18         21.5740    10.6970   -10.1030 c3         1 UTY      -0.091600
     23 O2          23.0070    10.5980    -7.2680 o          1 UTY      -0.511100
     24 C14         23.2190    12.9260    -7.8700 ca         1 UTY      -0.279600
     25 C12         24.7240    14.6940    -7.2250 ca         1 UTY      -0.184000
     26 C27         22.9600    15.1180    -8.8520 ca         1 UTY      -0.194000
     27 C11         24.0610    15.6010    -8.1000 cp         1 UTY       0.073000
     28 C9          24.5120    17.0210    -8.2280 cp         1 UTY      -0.226000
     29 N2          24.7400    19.0430    -9.5370 nb         1 UTY      -0.249500
     30 N           25.7530    20.9620    -8.5860 nh         1 UTY      -0.769300
     31 C2          25.9050    21.6300    -9.9190 c6         1 UTY       0.212800
     32 C3          26.5590    21.6400    -7.5220 c6         1 UTY       0.209800
     33 C1          25.5520    23.1460    -9.8590 c6         1 UTY       0.083700
     34 C           24.0170    23.3370    -9.6900 c3         1 UTY      -0.105100
     35 O           26.3510    25.8500    -9.9590 o          1 UTY      -0.616100
     36 O1          27.6490    27.3560    -8.0880 oh         1 UTY      -0.654000
     37 H1          27.0780    23.6040    -6.7990 h1         1 UTY       0.058700
     38 H2          25.3410    23.3500    -6.9770 h1         1 UTY       0.058700
     39 H3          26.6940    25.9300    -6.8730 h1         1 UTY       0.052200
     40 H4          28.2610    25.4220    -7.5350 h1         1 UTY       0.052200
     41 H5          23.8700    17.3280   -10.3000 h4         1 UTY       0.025100
     42 H6          25.3210    17.2410    -6.2040 h4         1 UTY       0.025100
     43 H7          24.8260    12.6700    -6.4320 ha         1 UTY       0.130000
     44 H8          19.9170    12.1520    -7.3760 hc         1 UTY       0.051200
     45 H9          19.2020    11.5550    -8.8820 hc         1 UTY       0.051200
     46 H10         20.0110    10.4310    -7.7810 hc         1 UTY       0.051200
     47 H11         23.0400    13.0660   -11.5110 ha         1 UTY       0.138000
     48 H12         24.0240    14.0350   -13.5930 ha         1 UTY       0.132000
     49 H13         22.7810    15.8240   -14.8200 h4         1 UTY       0.031100
     50 H14         20.1020    14.5950    -9.7890 h1         1 UTY       0.069700
     51 H15         19.8240    13.0790   -10.6310 h1         1 UTY       0.069700
     52 H16         21.5410     9.6590    -9.7520 hc         1 UTY       0.051200
     53 H17         20.7840    10.8200   -10.8540 hc         1 UTY       0.051200
     54 H18         22.5380    10.8450   -10.6040 hc         1 UTY       0.051200
     55 H19         25.5790    15.0280    -6.6440 ha         1 UTY       0.119000
     56 H20         22.4170    15.7780    -9.5180 ha         1 UTY       0.123000
     57 H21         25.2720    21.1690   -10.6910 h1         1 UTY       0.076200
     58 H22         26.9440    21.5260   -10.2660 h1         1 UTY       0.076200
     59 H23         26.3410    21.2360    -6.5230 h1         1 UTY       0.074200
     60 H24         27.6300    21.4650    -7.7080 h1         1 UTY       0.074200
     61 H25         25.8250    23.5720   -10.8360 h1         1 UTY       0.094700
     62 H26         23.7500    24.4000    -9.6950 hc         1 UTY       0.046367
     63 H27         23.4670    22.8550   -10.5070 hc         1 UTY       0.046367
     64 H28         23.6560    22.9070    -8.7480 hc         1 UTY       0.046367
     65 H29         27.2910    27.4940    -8.9990 ho         1 UTY       0.478000
     66 C17         20.0540    11.4430    -8.2020 c3         1 UTY      -0.091600
     67 C19         20.6110    13.7820   -10.3250 c3         1 UTY       0.287100
@<TRIPOS>BOND
     1     1     3 1   
     2     1     4 1   
     3     1    33 1   
     4     2     6 ar  
     5     2     8 ar  
     6     3    32 1   
     7     3    37 1   
     8     3    38 1   
     9     4     5 1   
    10     4    35 2   
    11     5    36 1   
    12     5    39 1   
    13     5    40 1   
    14     6    29 ar  
    15     6    30 1   
    16     7    28 ar  
    17     7    29 ar  
    18     7    41 1   
    19     8    28 ar  
    20     8    42 1   
    21     9    24 ar  
    22     9    25 ar  
    23     9    43 1   
    24    10    21 1   
    25    10    23 2   
    26    10    24 1   
    27    11    12 ar  
    28    11    14 ar  
    29    11    67 1   
    30    12    13 ar  
    31    12    47 1   
    32    13    19 ar  
    33    13    48 1   
    34    14    17 1   
    35    14    18 ar  
    36    15    20 1   
    37    15    24 ar  
    38    15    26 ar  
    39    16    17 3   
    40    18    19 ar  
    41    19    49 1   
    42    20    21 1   
    43    20    67 1   
    44    21    22 1   
    45    21    66 1   
    46    22    52 1   
    47    22    53 1   
    48    22    54 1   
    49    25    27 ar  
    50    25    55 1   
    51    26    27 ar  
    52    26    56 1   
    53    27    28 1   
    54    30    31 1   
    55    30    32 1   
    56    31    33 1   
    57    31    57 1   
    58    31    58 1   
    59    32    59 1   
    60    32    60 1   
    61    33    34 1   
    62    33    61 1   
    63    34    62 1   
    64    34    63 1   
    65    34    64 1   
    66    36    65 1   
    67    44    66 1   
    68    45    66 1   
    69    46    66 1   
    70    50    67 1   
    71    51    67 1   
@<TRIPOS>SUBSTRUCTURE
     1 UTY         1 TEMP              0 ****  ****    0 ROOT
