@<TRIPOS>MOLECULE
UTY
   67    71     1     0     0
SMALL
abcg2


@<TRIPOS>ATOM
      1 N1          25.9680    23.5840    -8.6560 n          1 UTY      -0.399800
      2 N3          25.9280    19.0170    -7.4170 nb         1 UTY      -0.249500
      3 C4          26.1670    22.8260    -7.4310 c6         1 UTY       0.076000
      4 C5          26.1640    24.9070    -8.7540 c          1 UTY       0.561100
      5 C6          26.7080    25.6590    -7.5420 c3         1 UTY       0.088600
      6 C7          25.8400    19.5850    -8.6280 ca         1 UTY       0.398900
      7 C8          24.7650    17.8030    -9.5240 ca         1 UTY       0.172400
      8 C10         25.4170    17.8120    -7.2790 ca         1 UTY       0.172400
      9 C13         24.3500    13.5900    -7.0910 ca         1 UTY       0.015000
     10 C15         22.5090    11.9540    -7.8780 c          1 UTY       0.594700
     11 C20         21.3030    14.4460   -11.6250 ca         1 UTY      -0.120300
     12 C21         22.5320    13.9360   -12.0260 ca         1 UTY      -0.064000
     13 C22         23.0050    14.2130   -13.2960 ca         1 UTY      -0.144000
     14 C24         20.6260    15.2200   -12.5660 ca         1 UTY       0.428000
     15 C26         22.6260    14.0920    -8.7250 ca         1 UTY       0.365000
     16 N6          18.3210    16.2300   -11.9550 n1         1 UTY      -0.431000
     17 C25         19.3450    15.7850   -12.2330 cg         1 UTY       0.215000
     18 N5          21.0640    15.4940   -13.7900 nb         1 UTY      -0.631000
     19 C23         22.2360    14.9970   -14.1460 ca         1 UTY       0.337900
     20 N4          21.5740    13.5110    -9.3530 nh         1 UTY      -0.827400
     21 C16         21.3510    12.1490    -8.8680 c5         1 UTY       0.139200
     22 C18         21.4320    11.1250    -9.9950 c3         1 UTY      -0.091600
     23 O2          22.7190    10.9250    -7.2710 o          1 UTY      -0.511100
     24 C14         23.2380    13.2040    -7.8300 ca         1 UTY      -0.279600
     25 C12         24.8510    14.8640    -7.2540 ca         1 UTY      -0.184000
     26 C27         23.1160    15.3890    -8.8790 ca         1 UTY      -0.194000
     27 C11         24.2370    15.7690    -8.1460 cp         1 UTY       0.073000
     28 C9          24.7960    17.1130    -8.3130 cp         1 UTY      -0.226000
     29 N2          25.2690    19.0060    -9.6930 nb         1 UTY      -0.249500
     30 N           26.3750    20.8140    -8.7890 nh         1 UTY      -0.769300
     31 C2          26.2550    21.5810   -10.0100 c6         1 UTY       0.212800
     32 C3          26.9740    21.5660    -7.7080 c6         1 UTY       0.209800
     33 C1          25.4080    22.8310    -9.7810 c6         1 UTY       0.083700
     34 C           23.9350    22.5100    -9.5590 c3         1 UTY      -0.105100
     35 O           25.9350    25.5520    -9.7730 o          1 UTY      -0.616100
     36 O1          26.8350    27.0160    -7.8370 oh         1 UTY      -0.654000
     37 H1          26.7000    23.4170    -6.6910 h1         1 UTY       0.058700
     38 H2          25.2010    22.5600    -6.9940 h1         1 UTY       0.058700
     39 H3          26.0320    25.5100    -6.6910 h1         1 UTY       0.052200
     40 H4          27.6770    25.2300    -7.2580 h1         1 UTY       0.052200
     41 H5          24.3280    17.3450   -10.4070 h4         1 UTY       0.025100
     42 H6          25.4850    17.3800    -6.2850 h4         1 UTY       0.025100
     43 H7          24.8230    12.8960    -6.4070 ha         1 UTY       0.130000
     44 H8          19.9570    12.7810    -7.3170 hc         1 UTY       0.051200
     45 H9          19.1780    12.1590    -8.7780 hc         1 UTY       0.051200
     46 H10         19.9470    11.0450    -7.6570 hc         1 UTY       0.051200
     47 H11         23.1170    13.3260   -11.3520 ha         1 UTY       0.138000
     48 H12         23.9590    13.8260   -13.6270 ha         1 UTY       0.132000
     49 H13         22.5790    15.2310   -15.1460 h4         1 UTY       0.031100
     50 H14         20.3790    15.1460    -9.8250 h1         1 UTY       0.069700
     51 H15         19.7950    13.5990   -10.3790 h1         1 UTY       0.069700
     52 H16         21.3250    10.1180    -9.5920 hc         1 UTY       0.051200
     53 H17         20.6270    11.2820   -10.7140 hc         1 UTY       0.051200
     54 H18         22.3830    11.1820   -10.5250 hc         1 UTY       0.051200
     55 H19         25.7390    15.1630    -6.7130 ha         1 UTY       0.119000
     56 H20         22.6250    16.0940    -9.5380 ha         1 UTY       0.123000
     57 H21         25.8100    20.9720   -10.7920 h1         1 UTY       0.076200
     58 H22         27.2550    21.8780   -10.3390 h1         1 UTY       0.076200
     59 H23         27.0240    20.9590    -6.8100 h1         1 UTY       0.074200
     60 H24         27.9950    21.8400    -7.9920 h1         1 UTY       0.074200
     61 H25         25.5020    23.4540   -10.6690 h1         1 UTY       0.094700
     62 H26         23.3690    23.4190    -9.3550 hc         1 UTY       0.046367
     63 H27         23.5190    22.0490   -10.4550 hc         1 UTY       0.046367
     64 H28         23.7750    21.8190    -8.7310 hc         1 UTY       0.046367
     65 H29         26.5620    27.1160    -8.7620 ho         1 UTY       0.478000
     66 C17         20.0290    12.0340    -8.1080 c3         1 UTY      -0.091600
     67 C19         20.7040    14.1930   -10.2600 c3         1 UTY       0.287100
@<TRIPOS>BOND
     1     1     3 1   
     2     1     4 1   
     3     1    33 1   
     4     2     6 ar  
     5     2     8 ar  
     6     3    32 1   
     7     3    37 1   
     8     3    38 1   
     9     4     5 1   
    10     4    35 2   
    11     5    36 1   
    12     5    39 1   
    13     5    40 1   
    14     6    29 ar  
    15     6    30 1   
    16     7    28 ar  
    17     7    29 ar  
    18     7    41 1   
    19     8    28 ar  
    20     8    42 1   
    21     9    24 ar  
    22     9    25 ar  
    23     9    43 1   
    24    10    21 1   
    25    10    23 2   
    26    10    24 1   
    27    11    12 ar  
    28    11    14 ar  
    29    11    67 1   
    30    12    13 ar  
    31    12    47 1   
    32    13    19 ar  
    33    13    48 1   
    34    14    17 1   
    35    14    18 ar  
    36    15    20 1   
    37    15    24 ar  
    38    15    26 ar  
    39    16    17 3   
    40    18    19 ar  
    41    19    49 1   
    42    20    21 1   
    43    20    67 1   
    44    21    22 1   
    45    21    66 1   
    46    22    52 1   
    47    22    53 1   
    48    22    54 1   
    49    25    27 ar  
    50    25    55 1   
    51    26    27 ar  
    52    26    56 1   
    53    27    28 1   
    54    30    31 1   
    55    30    32 1   
    56    31    33 1   
    57    31    57 1   
    58    31    58 1   
    59    32    59 1   
    60    32    60 1   
    61    33    34 1   
    62    33    61 1   
    63    34    62 1   
    64    34    63 1   
    65    34    64 1   
    66    36    65 1   
    67    44    66 1   
    68    45    66 1   
    69    46    66 1   
    70    50    67 1   
    71    51    67 1   
@<TRIPOS>SUBSTRUCTURE
     1 UTY         1 TEMP              0 ****  ****    0 ROOT
