@<TRIPOS>MOLECULE
UU1
   16    16     1     0     0
SMALL
bcc


@<TRIPOS>ATOM
      1 N1         -20.0670    11.4090    25.4950 nc         1 UU1      -0.533800
      2 C4         -21.3680    11.2460    25.6380 cd         1 UU1       0.340200
      3 N          -19.7460    12.4580    26.2450 na         1 UU1       0.119400
      4 C          -21.8860    12.2260    26.4960 cd         1 UU1      -0.233200
      5 O          -18.9700    15.0130    25.1860 oh         1 UU1      -0.599800
      6 C1         -20.8080    12.9970    26.8630 cc         1 UU1      -0.081300
      7 C2         -18.3920    12.9680    26.2360 c3         1 UU1       0.054300
      8 C3         -18.1350    13.8890    25.0620 c3         1 UU1       0.117400
      9 BR         -23.6530    12.4410    27.0370 br         1 UU1      -0.056100
     10 H1         -21.8900    10.4440    25.1400 h4         1 UU1       0.048100
     11 H2         -18.8950    15.5380    24.3850 ho         1 UU1       0.413000
     12 H3         -20.7330    13.8550    27.5100 h4         1 UU1       0.188000
     13 H4         -17.7100    12.1200    26.1940 h1         1 UU1       0.074200
     14 H5         -18.2180    13.4880    27.1780 h1         1 UU1       0.074200
     15 H6         -18.3190    13.3410    24.1300 h1         1 UU1       0.037200
     16 H7         -17.0720    14.1570    25.0750 h1         1 UU1       0.037200
@<TRIPOS>BOND
     1     1     2 2   
     2     1     3 1   
     3     2     4 1   
     4     2    10 1   
     5     3     6 1   
     6     3     7 1   
     7     4     6 2   
     8     4     9 1   
     9     5     8 1   
    10     5    11 1   
    11     6    12 1   
    12     7     8 1   
    13     7    13 1   
    14     7    14 1   
    15     8    15 1   
    16     8    16 1   
@<TRIPOS>SUBSTRUCTURE
     1 UU1         1 TEMP              0 ****  ****    0 ROOT
