@<TRIPOS>MOLECULE
UU1
   16    16     1     0     0
SMALL
No Charge or Current Charge


@<TRIPOS>ATOM
      1 N1         -20.0880    11.2100    25.5790 nc         1 UU1      -0.533800
      2 C4         -21.3870    11.0950    25.7910 cd         1 UU1       0.274900
      3 N          -19.7870    12.4220    26.1770 na         1 UU1       0.140800
      4 C          -21.9180    12.1900    26.5040 cd         1 UU1      -0.167900
      5 O          -18.8330    15.1820    25.2910 oh         1 UU1      -0.662000
      6 C1         -20.8880    13.0490    26.7560 cc         1 UU1      -0.114000
      7 C2         -18.4020    12.9260    26.1700 c3         1 UU1       0.083600
      8 C3         -18.1200    13.9560    25.0540 c3         1 UU1       0.140600
      9 Br         -23.7200    12.4170    27.0080 br         1 UU1      -0.056100
     10 H1         -21.9120    10.2210    25.4230 h4         1 UU1       0.048100
     11 H2         -18.6140    15.7920    24.5510 ho         1 UU1       0.452000
     12 H3         -20.8370    14.0040    27.2640 h4         1 UU1       0.170000
     13 H4         -17.7230    12.0740    26.0450 h1         1 UU1       0.074200
     14 H5         -18.1870    13.3770    27.1460 h1         1 UU1       0.074200
     15 H6         -18.4050    13.5230    24.0850 h1         1 UU1       0.037200
     16 H7         -17.0400    14.1510    25.0250 h1         1 UU1       0.037200
@<TRIPOS>BOND
     1     1     2 2   
     2     1     3 1   
     3     2     4 1   
     4     2    10 1   
     5     3     6 1   
     6     3     7 1   
     7     4     6 2   
     8     4     9 1   
     9     5     8 1   
    10     5    11 1   
    11     6    12 1   
    12     7     8 1   
    13     7    13 1   
    14     7    14 1   
    15     8    15 1   
    16     8    16 1   
@<TRIPOS>SUBSTRUCTURE
     1 UU1         1 TEMP              0 ****  ****    0 ROOT
