@<TRIPOS>MOLECULE
UU2
   50    53     1     0     0
SMALL
abcg2


@<TRIPOS>ATOM
      1 C4          41.5160     2.5730     9.8570 ca         1 UU2      -0.078000
      2 C5          42.9130     2.5880     9.8330 ca         1 UU2      -0.019000
      3 C6          43.6460     1.5410    10.4180 ca         1 UU2       0.170100
      4 C10         45.7770     0.5480    10.7570 ca         1 UU2       0.074100
      5 C13         47.4210    -1.5140    11.5410 ca         1 UU2      -0.102000
      6 C15         46.4070     0.6180    11.9880 ca         1 UU2      -0.101000
      7 C17         40.4700    -0.4870    12.9340 c          1 UU2       0.624000
      8 C20         39.5060    -2.6950    12.7160 cc         1 UU2       0.045400
      9 C21         39.9140    -2.8320    11.4440 cd         1 UU2      -0.336200
     10 C22         40.6460    -1.7660    10.8010 c          1 UU2       0.593200
     11 C24         38.6620    -3.7320    13.4360 c3         1 UU2       0.276500
     12 C26         37.2400    -3.2810    13.6640 ca         1 UU2      -0.177300
     13 C28         36.7300    -3.1310    14.9500 ca         1 UU2      -0.070500
     14 C11         45.9410    -0.5260     9.8820 ca         1 UU2      -0.072300
     15 C12         46.7810    -1.5580    10.3070 ca         1 UU2      -0.105000
     16 C14         47.2380    -0.4240    12.3840 ca         1 UU2      -0.107000
     17 O7          44.9960     1.6400    10.3620 os         1 UU2      -0.241200
     18 C1          42.9730     0.4840    11.0180 ca         1 UU2      -0.143000
     19 C33         43.6040     3.6630     9.2040 cg         1 UU2       0.334000
     20 N34         44.1570     4.5320     8.6870 n1         1 UU2      -0.440000
     21 C3          40.8740     1.5110    10.4520 ca         1 UU2       0.151000
     22 F8          39.5290     1.4740    10.4760 f          1 UU2      -0.166000
     23 C2          41.5890     0.4680    11.0280 ca         1 UU2       0.061600
     24 N9          40.8870    -0.6330    11.6140 n          1 UU2      -0.306600
     25 O19         40.6960     0.5100    13.5910 o          1 UU2      -0.526000
     26 N18         39.7810    -1.5660    13.4350 ns         1 UU2      -0.507600
     27 F25         39.2790    -4.0300    14.6250 f          1 UU2      -0.099000
     28 F27         38.6750    -4.8910    12.7020 f          1 UU2      -0.099000
     29 C29         35.4170    -2.7070    15.1230 ca         1 UU2      -0.109500
     30 C30         34.6200    -2.4310    14.0180 ca         1 UU2      -0.081000
     31 C31         35.1350    -2.5770    12.7320 ca         1 UU2      -0.109500
     32 C32         36.4460    -2.9970    12.5530 ca         1 UU2      -0.070500
     33 H1          40.9460     3.3750     9.4100 ha         1 UU2       0.149000
     34 H2          48.0680    -2.3290    11.8400 ha         1 UU2       0.119000
     35 H3          46.2400     1.4810    12.6200 ha         1 UU2       0.133000
     36 H4          39.6950    -3.7150    10.8680 ha         1 UU2       0.239000
     37 H5          37.3500    -3.3430    15.8090 ha         1 UU2       0.127500
     38 H6          45.3300     0.3870     8.0310 hc         1 UU2       0.054700
     39 H7          45.6740    -1.3490     7.9240 hc         1 UU2       0.054700
     40 H8          44.1790    -0.7770     8.6690 hc         1 UU2       0.054700
     41 H9          46.9340    -2.4050     9.6500 ha         1 UU2       0.119000
     42 H10         47.7360    -0.3810    13.3440 ha         1 UU2       0.121000
     43 H11         43.5150    -0.3330    11.4710 ha         1 UU2       0.147000
     44 H12         39.4790    -1.4760    14.3960 hn         1 UU2       0.473000
     45 H13         35.0190    -2.5910    16.1230 ha         1 UU2       0.124000
     46 H14         33.5990    -2.0990    14.1560 ha         1 UU2       0.122000
     47 H15         34.5180    -2.3600    11.8700 ha         1 UU2       0.124000
     48 H16         36.8490    -3.1040    11.5540 ha         1 UU2       0.127500
     49 O23         41.0430    -1.7850     9.6480 o          1 UU2      -0.499000
     50 C16         45.2460    -0.5690     8.5520 c3         1 UU2      -0.054800
@<TRIPOS>BOND
     1     1     2 ar  
     2     1    21 ar  
     3     1    33 1   
     4     2     3 ar  
     5     2    19 1   
     6     3    17 1   
     7     3    18 ar  
     8     4     6 ar  
     9     4    14 ar  
    10     4    17 1   
    11     5    15 ar  
    12     5    16 ar  
    13     5    34 1   
    14     6    16 ar  
    15     6    35 1   
    16     7    24 1   
    17     7    25 2   
    18     7    26 1   
    19     8     9 2   
    20     8    11 1   
    21     8    26 1   
    22     9    10 1   
    23     9    36 1   
    24    10    24 1   
    25    10    49 2   
    26    11    12 1   
    27    11    27 1   
    28    11    28 1   
    29    12    13 ar  
    30    12    32 ar  
    31    13    29 ar  
    32    13    37 1   
    33    14    15 ar  
    34    14    50 1   
    35    15    41 1   
    36    16    42 1   
    37    18    23 ar  
    38    18    43 1   
    39    19    20 3   
    40    21    22 1   
    41    21    23 ar  
    42    23    24 1   
    43    26    44 1   
    44    29    30 ar  
    45    29    45 1   
    46    30    31 ar  
    47    30    46 1   
    48    31    32 ar  
    49    31    47 1   
    50    32    48 1   
    51    38    50 1   
    52    39    50 1   
    53    40    50 1   
@<TRIPOS>SUBSTRUCTURE
     1 UU2         1 TEMP              0 ****  ****    0 ROOT
