@<TRIPOS>MOLECULE
UU2
   50    53     1     0     0
SMALL
No Charge or Current Charge


@<TRIPOS>ATOM
      1 C4          41.6640     2.4700     9.2190 ca         1 UU2      -0.078000
      2 C5          43.0140     2.5910     9.6030 ca         1 UU2      -0.019000
      3 C6          43.5940     1.6160    10.4430 ca         1 UU2       0.170100
      4 C10         45.6770     0.6580    11.2140 ca         1 UU2       0.074100
      5 C13         47.2150    -1.5150    12.1150 ca         1 UU2      -0.102000
      6 C15         46.1360     0.6210    12.5420 ca         1 UU2      -0.101000
      7 C17         39.6580    -0.4730    11.9080 c          1 UU2       0.624000
      8 C20         39.1480    -2.8680    11.9290 cc         1 UU2       0.045400
      9 C21         40.1660    -3.0800    11.0380 cd         1 UU2      -0.336200
     10 C22         41.0020    -1.9900    10.5150 c          1 UU2       0.593200
     11 C24         38.2280    -3.9320    12.5220 c3         1 UU2       0.276500
     12 C26         37.2100    -3.3470    13.5190 ca         1 UU2      -0.177300
     13 C28         37.5380    -3.2190    14.8870 ca         1 UU2      -0.070500
     14 C11         45.9990    -0.3890    10.3170 ca         1 UU2      -0.072300
     15 C12         46.7670    -1.4760    10.7830 ca         1 UU2      -0.105000
     16 C14         46.9030    -0.4650    12.9940 ca         1 UU2      -0.107000
     17 O7          44.9200     1.7340    10.8110 os         1 UU2      -0.241200
     18 C1          42.8140     0.5340    10.9040 ca         1 UU2      -0.143000
     19 C33         43.7910     3.7020     9.1250 cg         1 UU2       0.334000
     20 N34         44.4110     4.6080     8.7280 n1         1 UU2      -0.440000
     21 C3          40.8960     1.3860     9.6720 ca         1 UU2       0.151000
     22 F8          39.6090     1.2750     9.2690 f          1 UU2      -0.166000
     23 C2          41.4660     0.4120    10.5200 ca         1 UU2       0.061600
     24 N9          40.6940    -0.7050    10.9920 n          1 UU2      -0.306600
     25 O19         39.3900     0.6330    12.3460 o          1 UU2      -0.526000
     26 N18         38.9450    -1.5590    12.3200 ns         1 UU2      -0.507600
     27 F25         38.9800    -4.8830    13.1240 f          1 UU2      -0.099000
     28 F27         37.5880    -4.5740    11.5170 f          1 UU2      -0.099000
     29 C29         36.6170    -2.6630    15.7920 ca         1 UU2      -0.109500
     30 C30         35.3610    -2.2250    15.3410 ca         1 UU2      -0.081000
     31 C31         35.0280    -2.3400    13.9820 ca         1 UU2      -0.109500
     32 C32         35.9460    -2.8950    13.0740 ca         1 UU2      -0.070500
     33 H1          41.2080     3.2090     8.5640 ha         1 UU2       0.149000
     34 H2          47.8080    -2.3570    12.4640 ha         1 UU2       0.119000
     35 H3          45.8900     1.4340    13.2220 ha         1 UU2       0.133000
     36 H4          40.4130    -4.0660    10.6620 ha         1 UU2       0.239000
     37 H5          38.5090    -3.5450    15.2550 ha         1 UU2       0.127500
     38 H6          45.6180     0.6410     8.4340 hc         1 UU2       0.054700
     39 H7          46.1470    -1.0300     8.2370 hc         1 UU2       0.054700
     40 H8          44.4960    -0.6900     8.7740 hc         1 UU2       0.054700
     41 H9          47.0200    -2.2930    10.1110 ha         1 UU2       0.119000
     42 H10         47.2530    -0.4940    14.0240 ha         1 UU2       0.121000
     43 H11         43.2470    -0.2140    11.5610 ha         1 UU2       0.147000
     44 H12         38.2070    -1.3440    12.9830 hn         1 UU2       0.473000
     45 H13         36.8780    -2.5700    16.8440 ha         1 UU2       0.124000
     46 H14         34.6500    -1.7940    16.0430 ha         1 UU2       0.122000
     47 H15         34.0580    -1.9970    13.6310 ha         1 UU2       0.124000
     48 H16         35.6710    -2.9680    12.0240 ha         1 UU2       0.127500
     49 O23         41.9000    -2.2000     9.7120 o          1 UU2      -0.499000
     50 C16         45.5400    -0.3650     8.8620 c3         1 UU2      -0.054800
@<TRIPOS>BOND
     1     1     2 ar  
     2     1    21 ar  
     3     1    33 1   
     4     2     3 ar  
     5     2    19 1   
     6     3    17 1   
     7     3    18 ar  
     8     4     6 ar  
     9     4    14 ar  
    10     4    17 1   
    11     5    15 ar  
    12     5    16 ar  
    13     5    34 1   
    14     6    16 ar  
    15     6    35 1   
    16     7    24 1   
    17     7    25 2   
    18     7    26 1   
    19     8     9 2   
    20     8    11 1   
    21     8    26 1   
    22     9    10 1   
    23     9    36 1   
    24    10    24 1   
    25    10    49 2   
    26    11    12 1   
    27    11    27 1   
    28    11    28 1   
    29    12    13 ar  
    30    12    32 ar  
    31    13    29 ar  
    32    13    37 1   
    33    14    15 ar  
    34    14    50 1   
    35    15    41 1   
    36    16    42 1   
    37    18    23 ar  
    38    18    43 1   
    39    19    20 3   
    40    21    22 1   
    41    21    23 ar  
    42    23    24 1   
    43    26    44 1   
    44    29    30 ar  
    45    29    45 1   
    46    30    31 ar  
    47    30    46 1   
    48    31    32 ar  
    49    31    47 1   
    50    32    48 1   
    51    38    50 1   
    52    39    50 1   
    53    40    50 1   
@<TRIPOS>SUBSTRUCTURE
     1 UU2         1 TEMP              0 ****  ****    0 ROOT
