@<TRIPOS>MOLECULE
UU3
   18    18     1     0     0
SMALL
bcc


@<TRIPOS>ATOM
      1 C01          2.5460     0.5290     0.4600 c3         1 UU3       0.107400
      2 C02          1.4210    -0.4280     0.1070 c3         1 UU3       0.133100
      3 C03          0.2180    -0.3060     1.0280 c5         1 UU3       0.048100
      4 C04         -0.8840    -1.1710     0.4560 c          1 UU3       0.463100
      5 O05         -1.0250    -2.3530     0.5500 o          1 UU3      -0.418100
      6 C06         -1.7680    -0.2110    -0.3200 c          1 UU3       0.380100
      7 O07         -2.6640    -0.4680    -1.0630 o          1 UU3      -0.379100
      8 C08         -1.2820     1.1750     0.0720 c          1 UU3       0.653600
      9 O09         -1.7340     2.2240    -0.2700 o          1 UU3      -0.503500
     10 O10         -0.3050     1.0360     0.9630 os         1 UU3      -0.396900
     11 O11          0.8920    -0.1940    -1.1770 oh         1 UU3      -0.619800
     12 O12          3.5780     0.3040    -0.4730 oh         1 UU3      -0.607800
     13 H1           2.1870     1.5620     0.4210 h1         1 UU3       0.046200
     14 H2           2.8730     0.3290     1.4880 h1         1 UU3       0.046200
     15 H3           1.7930    -1.4580     0.2090 h1         1 UU3       0.068700
     16 H4           0.4580    -0.5380     2.0660 h1         1 UU3       0.118700
     17 H5           1.6130    -0.1240    -1.8140 ho         1 UU3       0.442000
     18 H6           4.1130     1.1000    -0.5380 ho         1 UU3       0.419000
@<TRIPOS>BOND
     1     1     2 1   
     2     1    12 1   
     3     1    13 1   
     4     1    14 1   
     5     2     3 1   
     6     2    11 1   
     7     2    15 1   
     8     3     4 1   
     9     3    10 1   
    10     3    16 1   
    11     4     5 2   
    12     4     6 1   
    13     6     7 2   
    14     6     8 1   
    15     8     9 2   
    16     8    10 1   
    17    11    17 1   
    18    12    18 1   
@<TRIPOS>SUBSTRUCTURE
     1 UU3         1 TEMP              0 ****  ****    0 ROOT
