@<TRIPOS>MOLECULE
UU3
   18    18     1     0     0
SMALL
No Charge or Current Charge


@<TRIPOS>ATOM
      1 C01          2.6010     0.5470     0.3920 c3         1 UU3       0.130600
      2 C02          1.4460    -0.4330     0.0510 c3         1 UU3       0.156300
      3 C03          0.1830    -0.2620     0.9410 c5         1 UU3       0.071300
      4 C04         -0.9610    -1.1660     0.4440 c          1 UU3       0.463100
      5 O05         -1.0890    -2.3830     0.5640 o          1 UU3      -0.418100
      6 C06         -1.9690    -0.2340    -0.2240 c          1 UU3       0.380100
      7 O07         -2.9870    -0.5480    -0.8440 o          1 UU3      -0.379100
      8 C08         -1.4370     1.1920     0.0740 c          1 UU3       0.578100
      9 O09         -2.0450     2.2300    -0.1620 o          1 UU3      -0.428000
     10 O10         -0.3040     1.1240     0.8620 os         1 UU3      -0.420100
     11 O11          1.1060    -0.2740    -1.3370 oh         1 UU3      -0.682000
     12 O12          3.6870     0.3580    -0.5360 oh         1 UU3      -0.670000
     13 H1           2.2330     1.5810     0.3450 h1         1 UU3       0.046200
     14 H2           2.9360     0.3590     1.4210 h1         1 UU3       0.046200
     15 H3           1.8250    -1.4510     0.2180 h1         1 UU3       0.068700
     16 H4           0.4160    -0.5130     1.9840 h1         1 UU3       0.118700
     17 H5           1.9680    -0.0720    -1.7760 ho         1 UU3       0.481000
     18 H6           4.4200     0.9520    -0.2510 ho         1 UU3       0.458000
@<TRIPOS>BOND
     1     1     2 1   
     2     1    12 1   
     3     1    13 1   
     4     1    14 1   
     5     2     3 1   
     6     2    11 1   
     7     2    15 1   
     8     3     4 1   
     9     3    10 1   
    10     3    16 1   
    11     4     5 2   
    12     4     6 1   
    13     6     7 2   
    14     6     8 1   
    15     8     9 2   
    16     8    10 1   
    17    11    17 1   
    18    12    18 1   
@<TRIPOS>SUBSTRUCTURE
     1 UU3         1 TEMP              0 ****  ****    0 ROOT
