@<TRIPOS>MOLECULE
UU4
   28    27     1     0     0
SMALL
bcc


@<TRIPOS>ATOM
      1 N          -18.3530    -6.5030    34.6810 n8         1 UU4      -0.889800
      2 CA         -19.0560    -5.2510    34.4330 c3         1 UU4       0.016500
      3 C          -18.8300    -4.6270    33.0290 c          1 UU4       0.904600
      4 O          -19.4660    -3.5760    32.7940 o          1 UU4      -0.844800
      5 C3         -18.7580    -4.2530    35.5570 c3         1 UU4      -0.057400
      6 C4         -17.2900    -3.8930    35.7330 c3         1 UU4       0.111000
      7 N2         -16.7840    -3.0530    34.6670 ns         1 UU4      -0.554900
      8 C5         -15.5160    -3.0760    34.2320 c          1 UU4       0.670100
      9 C6         -15.1980    -2.0430    33.1450 c3         1 UU4       0.085500
     10 O2         -14.6740    -3.8490    34.6650 o          1 UU4      -0.615100
     11 OXT        -18.0550    -5.2200    32.2540 o          1 UU4      -0.844800
     12 H1         -18.7890    -7.2310    34.1290 hn         1 UU4       0.330800
     13 H2         -17.4240    -6.4230    34.2830 hn         1 UU4       0.330800
     14 HA         -20.1290    -5.4650    34.5040 h1         1 UU4       0.032700
     15 H5         -19.3500    -3.3450    35.4140 hc         1 UU4       0.031700
     16 H6         -19.0920    -4.6900    36.5010 hc         1 UU4       0.031700
     17 H7         -17.1630    -3.3830    36.6940 h1         1 UU4       0.035200
     18 H8         -16.6850    -4.7970    35.7820 h1         1 UU4       0.035200
     19 H9         -17.4180    -2.3710    34.2800 hn         1 UU4       0.326500
     20 H10        -15.7240    -1.1130    33.4160 h1         1 UU4       0.018700
     21 N3         -13.7650    -1.8770    33.0320 n8         1 UU4      -0.867800
     22 C7         -15.7650    -2.5120    31.8080 c3         1 UU4       0.127400
     23 O4         -15.4670    -1.5280    30.8420 oh         1 UU4      -0.632800
     24 H11        -13.5720    -1.1880    32.3170 hn         1 UU4       0.337800
     25 H12        -13.3890    -1.5010    33.8930 hn         1 UU4       0.337800
     26 H131       -15.3140    -3.4800    31.5550 h1         1 UU4       0.069700
     27 H14        -16.8450    -2.6650    31.9000 h1         1 UU4       0.069700
     28 H15        -15.7260    -1.8650    29.9800 ho         1 UU4       0.406000
@<TRIPOS>BOND
     1     1     2 1   
     2     1    12 1   
     3     1    13 1   
     4     2     3 1   
     5     2     5 1   
     6     2    14 1   
     7     3     4 1   
     8     3    11 1   
     9     5     6 1   
    10     5    15 1   
    11     5    16 1   
    12     6     7 1   
    13     6    17 1   
    14     6    18 1   
    15     7     8 1   
    16     7    19 1   
    17     8     9 1   
    18     8    10 2   
    19     9    20 1   
    20     9    21 1   
    21     9    22 1   
    22    21    24 1   
    23    21    25 1   
    24    22    23 1   
    25    22    26 1   
    26    22    27 1   
    27    23    28 1   
@<TRIPOS>SUBSTRUCTURE
     1 UU4         1 TEMP              0 ****  ****    0 ROOT
