@<TRIPOS>MOLECULE
UU4
   28    27     1     0     0
SMALL
No Charge or Current Charge


@<TRIPOS>ATOM
      1 N          -18.4700    -6.5040    34.5870 n8         1 UU4      -0.889800
      2 CA         -19.1170    -5.1360    34.5620 c3         1 UU4       0.016500
      3 C          -19.0130    -4.2910    33.2130 c          1 UU4       0.904600
      4 O          -19.6840    -3.2700    33.1020 o          1 UU4      -0.844800
      5 C3         -18.6810    -4.3150    35.8100 c3         1 UU4      -0.057400
      6 C4         -17.1730    -3.9870    35.9180 c3         1 UU4       0.111000
      7 N2         -16.6990    -3.0830    34.8650 ns         1 UU4      -0.554900
      8 C5         -15.6720    -3.3560    33.9810 c          1 UU4       0.670100
      9 C6         -15.3640    -2.2140    32.9480 c3         1 UU4       0.085500
     10 O2         -15.0490    -4.4120    34.0190 o          1 UU4      -0.615100
     11 OXT        -18.3230    -4.7200    32.2930 o          1 UU4      -0.844800
     12 H1         -18.8290    -7.0500    33.7970 hn         1 UU4       0.330800
     13 H2         -17.4750    -6.3910    34.3660 hn         1 UU4       0.330800
     14 HA         -20.1920    -5.3230    34.6830 h1         1 UU4       0.032700
     15 H5         -19.2530    -3.3800    35.8460 hc         1 UU4       0.031700
     16 H6         -18.9690    -4.8740    36.7080 hc         1 UU4       0.031700
     17 H7         -16.9890    -3.4970    36.8840 h1         1 UU4       0.035200
     18 H8         -16.5920    -4.9180    35.9100 h1         1 UU4       0.035200
     19 H9         -17.1490    -2.1800    34.7660 hn         1 UU4       0.326500
     20 H10        -16.2310    -1.5410    32.9610 h1         1 UU4       0.018700
     21 N3         -14.1690    -1.3540    33.2670 n8         1 UU4      -0.867800
     22 C7         -15.2790    -2.7900    31.5070 c3         1 UU4       0.127400
     23 O4         -15.1170    -1.7300    30.5410 oh         1 UU4      -0.632800
     24 H11        -14.0450    -0.6890    32.4960 hn         1 UU4       0.337800
     25 H12        -14.3740    -0.7700    34.0840 hn         1 UU4       0.337800
     26 H131       -14.4360    -3.4930    31.4520 h1         1 UU4       0.069700
     27 H14        -16.1950    -3.3600    31.2980 h1         1 UU4       0.069700
     28 H15        -15.0580    -2.1500    29.6560 ho         1 UU4       0.406000
@<TRIPOS>BOND
     1     1     2 1   
     2     1    12 1   
     3     1    13 1   
     4     2     3 1   
     5     2     5 1   
     6     2    14 1   
     7     3     4 1   
     8     3    11 1   
     9     5     6 1   
    10     5    15 1   
    11     5    16 1   
    12     6     7 1   
    13     6    17 1   
    14     6    18 1   
    15     7     8 1   
    16     7    19 1   
    17     8     9 1   
    18     8    10 2   
    19     9    20 1   
    20     9    21 1   
    21     9    22 1   
    22    21    24 1   
    23    21    25 1   
    24    22    23 1   
    25    22    26 1   
    26    22    27 1   
    27    23    28 1   
@<TRIPOS>SUBSTRUCTURE
     1 UU4         1 TEMP              0 ****  ****    0 ROOT
