@<TRIPOS>MOLECULE
UUA
   27    28     1     0     0
SMALL
bcc


@<TRIPOS>ATOM
      1 N1           1.1650     0.3920     0.3120 n          1 UUA      -0.372000
      2 C4          -0.1950     0.8820     0.5200 c5         1 UUA       0.324500
      3 C5          -2.4770    -1.4960    -0.0460 c          1 UUA       0.934600
      4 C6           1.3990    -0.7550    -0.4260 c          1 UUA       0.813500
      5 C7           3.8220    -0.5020     0.0560 c          1 UUA       0.739700
      6 C8           3.4870     0.6820     0.8050 cc         1 UUA      -0.376200
      7 O8          -3.0550    -1.4840    -1.1500 o          1 UUA      -0.812800
      8 O2          -2.1000    -2.4880     0.5990 o          1 UUA      -0.812800
      9 C1          -2.2710    -0.1330     0.6550 c5         1 UUA      -0.030900
     10 C2          -2.4050     1.1070    -0.2240 c5         1 UUA       0.084100
     11 O3          -2.6920     2.2700     0.5220 oh         1 UUA      -0.612800
     12 C3          -0.9790     1.2330    -0.7460 c5         1 UUA       0.106100
     13 O4          -0.5780     2.4930    -1.1960 oh         1 UUA      -0.593800
     14 O1          -0.9550    -0.0430     1.2270 os         1 UUA      -0.380600
     15 O6           0.5250    -1.3910    -0.9700 o          1 UUA      -0.561500
     16 C9           2.2020     1.0600     0.9000 cd         1 UUA       0.085600
     17 N2           2.7190    -1.1260    -0.5030 ns         1 UUA      -0.610500
     18 O5           4.9390    -0.9600    -0.1020 o          1 UUA      -0.646500
     19 H1          -0.0650     1.8010     1.1050 h2         1 UUA       0.058700
     20 H2           4.2640     1.2520     1.2890 ha         1 UUA       0.156000
     21 H4          -2.9920    -0.0850     1.4820 h1         1 UUA       0.049700
     22 H5          -3.1340     0.9530    -1.0240 h1         1 UUA       0.084700
     23 H6          -3.5530     2.1540     0.9360 ho         1 UUA       0.395000
     24 H7          -0.8390     0.4640    -1.5100 h1         1 UUA       0.095700
     25 H8          -0.9280     2.6260    -2.0820 ho         1 UUA       0.404000
     26 H9           1.9230     1.9390     1.4640 h4         1 UUA       0.149000
     27 H10          2.8930    -1.9660    -1.0400 hn         1 UUA       0.332500
@<TRIPOS>BOND
     1     1     2 1   
     2     1     4 1   
     3     1    16 1   
     4     2    12 1   
     5     2    14 1   
     6     2    19 1   
     7     3     7 1   
     8     3     8 1   
     9     3     9 1   
    10     4    15 2   
    11     4    17 1   
    12     5     6 1   
    13     5    17 1   
    14     5    18 2   
    15     6    16 2   
    16     6    20 1   
    17     9    10 1   
    18     9    14 1   
    19     9    21 1   
    20    10    11 1   
    21    10    12 1   
    22    10    22 1   
    23    11    23 1   
    24    12    13 1   
    25    12    24 1   
    26    13    25 1   
    27    16    26 1   
    28    17    27 1   
@<TRIPOS>SUBSTRUCTURE
     1 UUA         1 TEMP              0 ****  ****    0 ROOT
