@<TRIPOS>MOLECULE
UUA
   27    28     1     0     0
SMALL
No Charge or Current Charge


@<TRIPOS>ATOM
      1 N1           1.2570     0.3060     0.3480 n          1 UUA      -0.305000
      2 C4          -0.1820     0.6430     0.5350 c5         1 UUA       0.347700
      3 C5          -3.1000    -1.3660    -0.0940 c          1 UUA       0.724000
      4 C6           1.6460    -0.9420    -0.1940 c          1 UUA       0.604000
      5 C7           4.0000    -0.3660     0.1450 c          1 UUA       0.597200
      6 C8           3.5470     0.9140     0.6740 cc         1 UUA      -0.426200
      7 O8          -4.2690    -1.2260    -0.4290 o          1 UUA      -0.707500
      8 O2          -2.5140    -2.4280    -0.2570 o          1 UUA      -0.707500
      9 C1          -2.3730    -0.1530     0.5960 c5         1 UUA      -0.007700
     10 C2          -2.3010     1.0560    -0.4140 c5         1 UUA       0.107300
     11 O3          -2.6030     2.3120     0.2290 oh         1 UUA      -0.735000
     12 C3          -0.8030     1.0310    -0.8430 c5         1 UUA       0.129300
     13 O4          -0.4210     2.3240    -1.3420 oh         1 UUA      -0.716000
     14 O1          -0.9950    -0.4480     0.9970 os         1 UUA      -0.427000
     15 O6           0.8700    -1.7750    -0.6290 o          1 UUA      -0.486000
     16 C9           2.2120     1.2300     0.7660 cd         1 UUA       0.035600
     17 N2           2.9870    -1.1780    -0.2440 ns         1 UUA      -0.476500
     18 O5           5.1690    -0.6910     0.0490 o          1 UUA      -0.571000
     19 H1          -0.2460     1.4780     1.2450 h2         1 UUA       0.058700
     20 H2           4.3260     1.5980     0.9900 ha         1 UUA       0.206000
     21 H4          -2.9500     0.1100     1.4920 h1         1 UUA       0.049700
     22 H5          -2.9570     0.9020    -1.2850 h1         1 UUA       0.084700
     23 H6          -3.5530     2.2850     0.4950 ho         1 UUA       0.494000
     24 H7          -0.6190     0.2440    -1.5880 h1         1 UUA       0.095700
     25 H8          -1.0850     2.9220    -0.9120 ho         1 UUA       0.503000
     26 H9           1.8160     2.1680     1.1520 h4         1 UUA       0.199000
     27 H10          3.2620    -2.0680    -0.6270 hn         1 UUA       0.332500
@<TRIPOS>BOND
     1     1     2 1   
     2     1     4 1   
     3     1    16 1   
     4     2    12 1   
     5     2    14 1   
     6     2    19 1   
     7     3     7 1   
     8     3     8 1   
     9     3     9 1   
    10     4    15 2   
    11     4    17 1   
    12     5     6 1   
    13     5    17 1   
    14     5    18 2   
    15     6    16 2   
    16     6    20 1   
    17     9    10 1   
    18     9    14 1   
    19     9    21 1   
    20    10    11 1   
    21    10    12 1   
    22    10    22 1   
    23    11    23 1   
    24    12    13 1   
    25    12    24 1   
    26    13    25 1   
    27    16    26 1   
    28    17    27 1   
@<TRIPOS>SUBSTRUCTURE
     1 UUA         1 TEMP              0 ****  ****    0 ROOT
