@<TRIPOS>MOLECULE
UUB
   72    76     1     0     0
SMALL
abcg2


@<TRIPOS>ATOM
      1 O24        -18.1410     0.9490    27.2280 os         1 UUB      -0.351100
      2 C15        -17.6560    -5.0410    25.4600 ca         1 UUB      -0.068000
      3 C14        -16.5110    -5.3950    26.1600 ca         1 UUB       0.162900
      4 C12        -16.2560    -3.2530    26.8600 ca         1 UUB       0.388900
      5 C1         -21.3340    -0.6120    26.8050 ca         1 UUB      -0.136000
      6 C2         -22.3080    -0.4130    25.8130 ca         1 UUB      -0.091000
      7 C5         -20.1850    -2.1850    25.4030 ca         1 UUB      -0.058800
      8 C4         -21.1890    -1.9800    24.4220 ca         1 UUB      -0.059200
      9 C3         -22.2510    -1.0970    24.6080 ca         1 UUB      -0.129000
     10 C10        -18.0870    -3.7050    25.5220 ca         1 UUB       0.294800
     11 C18        -15.7380    -0.9170    27.5260 c6         1 UUB       0.249500
     12 C19        -16.7820    -0.4580    28.5440 c6         1 UUB      -0.084400
     13 C20        -17.1600     0.9990    28.2850 c6         1 UUB       0.178300
     14 C21        -15.9400     1.8460    27.8700 c6         1 UUB      -0.109400
     15 C22        -14.6370     1.2180    28.3720 c6         1 UUB      -0.066400
     16 C23        -14.4110    -0.1740    27.7580 c6         1 UUB      -0.090400
     17 C25        -18.7950     2.0770    26.8430 ca         1 UUB       0.115100
     18 C26        -19.4580     2.0180    25.6170 ca         1 UUB      -0.139000
     19 C27        -20.2000     3.0910    25.1490 ca         1 UUB      -0.114500
     20 C28        -20.2930     4.2610    25.9100 ca         1 UUB      -0.059000
     21 C29        -19.6260     4.3190    27.1350 ca         1 UUB      -0.114500
     22 C30        -18.8850     3.2430    27.6050 ca         1 UUB      -0.139000
     23 C32        -21.6970     5.6440    24.3650 c          1 UUB       0.605300
     24 C33        -22.2820     7.0010    24.2180 ce         1 UUB      -0.281200
     25 C35        -21.9390     8.0980    24.8890 c2         1 UUB      -0.164200
     26 C36        -22.5650     9.4410    24.6830 c3         1 UUB       0.187000
     27 C6         -20.2780    -1.4880    26.6140 ca         1 UUB      -0.043000
     28 C8         -19.7750    -3.5300    23.6290 cc         1 UUB      -0.106100
     29 C9         -19.2840    -3.1890    24.8740 cd         1 UUB      -0.239000
     30 N11        -17.3660    -2.8300    26.2410 nb         1 UUB      -0.245000
     31 N13        -15.7960    -4.5260    26.8580 nb         1 UUB      -0.249000
     32 N17        -15.5160    -2.3530    27.5440 nu         1 UUB      -0.927100
     33 N31        -21.0290     5.3970    25.5230 ns         1 UUB      -0.139000
     34 N37        -21.5610    10.4910    24.5150 n3         1 UUB      -0.718600
     35 N7         -20.8970    -2.8060    23.3570 na         1 UUB      -0.224700
     36 O34        -21.8240     4.8190    23.4560 o          1 UUB      -0.591100
     37 H1         -16.1710    -6.4250    26.1530 h4         1 UUB       0.031100
     38 H2         -21.4010    -0.0540    27.7300 ha         1 UUB       0.112000
     39 H5         -23.1140     0.2870    25.9890 ha         1 UUB       0.112000
     40 H3         -23.0030    -0.9580    23.8420 ha         1 UUB       0.113000
     41 H4         -16.1200    -0.6710    26.5340 h1         1 UUB       0.087700
     42 H6         -17.6780    -1.0740    28.4820 hc         1 UUB       0.064200
     43 H7         -16.3810    -0.5620    29.5550 hc         1 UUB       0.064200
     44 H8         -17.6290     1.4100    29.1830 h1         1 UUB       0.044700
     45 H9         -16.0360     2.8680    28.2350 hc         1 UUB       0.056200
     46 H10        -15.9160     1.8990    26.7780 hc         1 UUB       0.056200
     47 H11        -14.6760     1.1410    29.4620 hc         1 UUB       0.043700
     48 H12        -13.7930     1.8680    28.1400 hc         1 UUB       0.043700
     49 H13        -13.8800    -0.0870    26.8080 hc         1 UUB       0.046700
     50 H14        -13.7770    -0.7640    28.4260 hc         1 UUB       0.046700
     51 H15        -19.3940     1.1080    25.0370 ha         1 UUB       0.126500
     52 H16        -20.7090     3.0240    24.2030 ha         1 UUB       0.129000
     53 H17        -19.6870     5.2210    27.7330 ha         1 UUB       0.129000
     54 H18        -18.3830     3.3250    28.5570 ha         1 UUB       0.126500
     55 H19        -23.0250     7.0570    23.4300 ha         1 UUB       0.201000
     56 H21        -21.1530     8.0770    25.6390 ha         1 UUB       0.179000
     57 H23        -23.1500     9.6860    25.5760 h1         1 UUB       0.044200
     58 H24        -23.2670     9.4060    23.8340 h1         1 UUB       0.044200
     59 H25        -20.3730     9.3790    23.1880 h1         1 UUB       0.034200
     60 H26        -21.5200    10.4660    22.3800 h1         1 UUB       0.034200
     61 H27        -20.0750    11.1220    23.1840 h1         1 UUB       0.034200
     62 H28        -22.6440    11.9090    25.6140 h1         1 UUB       0.034200
     63 H29        -21.3780    12.5750    24.5700 h1         1 UUB       0.034200
     64 H30        -22.9060    12.0180    23.8590 h1         1 UUB       0.034200
     65 H33        -19.5280    -1.6150    27.3780 ha         1 UUB       0.128000
     66 H31        -19.3860    -4.2240    22.9030 h4         1 UUB       0.222000
     67 H32        -14.6740    -2.7080    27.9690 hn         1 UUB       0.504000
     68 H34        -21.0450     6.1360    26.2090 hn         1 UUB       0.148000
     69 H39        -21.4240    -2.8660    22.5010 hn         1 UUB       0.353000
     70 CL1        -18.5190    -6.3010    24.6100 cl         1 UUB      -0.201000
     71 C38        -20.8490    10.3570    23.2500 c3         1 UUB       0.147600
     72 C39        -22.1570    11.8150    24.6430 c3         1 UUB       0.147600
@<TRIPOS>BOND
     1     1    13 1   
     2     1    17 1   
     3     2     3 ar  
     4     2    10 ar  
     5     2    70 1   
     6     3    31 ar  
     7     3    37 1   
     8     4    30 ar  
     9     4    31 ar  
    10     4    32 1   
    11     5     6 ar  
    12     5    27 ar  
    13     5    38 1   
    14     6     9 ar  
    15     6    39 1   
    16     7     8 ar  
    17     7    27 ar  
    18     7    29 1   
    19     8     9 ar  
    20     8    35 1   
    21     9    40 1   
    22    10    29 1   
    23    10    30 ar  
    24    11    12 1   
    25    11    16 1   
    26    11    32 1   
    27    11    41 1   
    28    12    13 1   
    29    12    42 1   
    30    12    43 1   
    31    13    14 1   
    32    13    44 1   
    33    14    15 1   
    34    14    45 1   
    35    14    46 1   
    36    15    16 1   
    37    15    47 1   
    38    15    48 1   
    39    16    49 1   
    40    16    50 1   
    41    17    18 ar  
    42    17    22 ar  
    43    18    19 ar  
    44    18    51 1   
    45    19    20 ar  
    46    19    52 1   
    47    20    21 ar  
    48    20    33 1   
    49    21    22 ar  
    50    21    53 1   
    51    22    54 1   
    52    23    24 1   
    53    23    33 1   
    54    23    36 2   
    55    24    25 2   
    56    24    55 1   
    57    25    26 1   
    58    25    56 1   
    59    26    34 1   
    60    26    57 1   
    61    26    58 1   
    62    27    65 1   
    63    28    29 2   
    64    28    35 1   
    65    28    66 1   
    66    32    67 1   
    67    33    68 1   
    68    34    71 1   
    69    34    72 1   
    70    35    69 1   
    71    59    71 1   
    72    60    71 1   
    73    61    71 1   
    74    62    72 1   
    75    63    72 1   
    76    64    72 1   
@<TRIPOS>SUBSTRUCTURE
     1 UUB         1 TEMP              0 ****  ****    0 ROOT
