@<TRIPOS>MOLECULE
UUB
   72    76     1     0     0
SMALL
No Charge or Current Charge


@<TRIPOS>ATOM
      1 O24        -18.2120     1.0970    27.0380 os         1 UUB      -0.351100
      2 C15        -17.6860    -5.4750    26.1220 ca         1 UUB      -0.068000
      3 C14        -16.5220    -5.6640    26.8870 ca         1 UUB       0.162900
      4 C12        -16.3290    -3.4070    27.1630 ca         1 UUB       0.388900
      5 C1         -21.2090    -0.6580    26.2230 ca         1 UUB      -0.136000
      6 C2         -22.1200    -0.6510    25.1400 ca         1 UUB      -0.091000
      7 C5         -20.1530    -2.6200    25.2980 ca         1 UUB      -0.058800
      8 C4         -21.0480    -2.6240    24.2630 ca         1 UUB      -0.059200
      9 C3         -22.0480    -1.6490    24.1450 ca         1 UUB      -0.129000
     10 C10        -18.1400    -4.1420    25.9380 ca         1 UUB       0.294800
     11 C18        -15.7830    -0.9260    27.4360 c6         1 UUB       0.249500
     12 C19        -16.8230    -0.3490    28.4210 c6         1 UUB      -0.084400
     13 C20        -17.1780     1.1170    28.0460 c6         1 UUB       0.178300
     14 C21        -15.9360     1.9120    27.5230 c6         1 UUB      -0.109400
     15 C22        -14.5970     1.3140    28.0170 c6         1 UUB      -0.066400
     16 C23        -14.4280    -0.1670    27.5700 c6         1 UUB      -0.090400
     17 C25        -18.8680     2.2450    26.6320 ca         1 UUB       0.115100
     18 C26        -19.5710     2.1960    25.4190 ca         1 UUB      -0.139000
     19 C27        -20.2710     3.3200    24.9470 ca         1 UUB      -0.114500
     20 C28        -20.2760     4.5190    25.6920 ca         1 UUB      -0.059000
     21 C29        -19.5750     4.5640    26.9120 ca         1 UUB      -0.114500
     22 C30        -18.8760     3.4390    27.3840 ca         1 UUB      -0.139000
     23 C32        -21.6990     6.0130    24.1480 c          1 UUB       0.605300
     24 C33        -22.2690     7.3940    24.1200 ce         1 UUB      -0.281200
     25 C35        -22.1370     8.3450    25.0830 c2         1 UUB      -0.164200
     26 C36        -22.7200     9.7410    25.0240 c3         1 UUB       0.187000
     27 C6         -20.2100    -1.6510    26.3120 ca         1 UUB      -0.043000
     28 C8         -19.7120    -4.4550    23.9360 cc         1 UUB      -0.106100
     29 C9         -19.3030    -3.7820    25.0860 cd         1 UUB      -0.239000
     30 N11        -17.4360    -3.1110    26.4570 nb         1 UUB      -0.245000
     31 N13        -15.8380    -4.6300    27.4080 nb         1 UUB      -0.249000
     32 N17        -15.5710    -2.3650    27.6800 nu         1 UUB      -0.927100
     33 N31        -20.9610     5.6990    25.2830 ns         1 UUB      -0.139000
     34 N37        -21.6640    10.7740    24.9230 n3         1 UUB      -0.718600
     35 N7         -20.8000    -3.7070    23.4410 na         1 UUB      -0.224700
     36 O34        -21.8900     5.2450    23.2140 o          1 UUB      -0.591100
     37 H1         -16.1310    -6.6610    27.0870 h4         1 UUB       0.031100
     38 H2         -21.2770     0.1080    26.9920 ha         1 UUB       0.112000
     39 H5         -22.8840     0.1200    25.0800 ha         1 UUB       0.112000
     40 H3         -22.7520    -1.6630    23.3160 ha         1 UUB       0.113000
     41 H4         -16.1530    -0.7640    26.4100 h1         1 UUB       0.087700
     42 H6         -17.7330    -0.9610    28.4300 hc         1 UUB       0.064200
     43 H7         -16.4250    -0.3860    29.4440 hc         1 UUB       0.064200
     44 H8         -17.5750     1.5920    28.9540 h1         1 UUB       0.044700
     45 H9         -16.0080     2.9620    27.8380 hc         1 UUB       0.056200
     46 H10        -15.9350     1.9230    26.4240 hc         1 UUB       0.056200
     47 H11        -14.5590     1.3750    29.1140 hc         1 UUB       0.043700
     48 H12        -13.7530     1.9140    27.6500 hc         1 UUB       0.043700
     49 H13        -13.9040    -0.2070    26.6050 hc         1 UUB       0.046700
     50 H14        -13.7690    -0.6700    28.2930 hc         1 UUB       0.046700
     51 H15        -19.5720     1.2770    24.8380 ha         1 UUB       0.126500
     52 H16        -20.8020     3.2340    24.0040 ha         1 UUB       0.129000
     53 H17        -19.5720     5.4770    27.5040 ha         1 UUB       0.129000
     54 H18        -18.3590     3.5120    28.3360 ha         1 UUB       0.126500
     55 H19        -22.8360     7.6140    23.2170 ha         1 UUB       0.201000
     56 H21        -21.5750     8.1670    26.0000 ha         1 UUB       0.179000
     57 H23        -23.3140     9.9010    25.9340 h1         1 UUB       0.044200
     58 H24        -23.4110     9.8190    24.1730 h1         1 UUB       0.044200
     59 H25        -20.3710     9.6860    23.6090 h1         1 UUB       0.034200
     60 H26        -21.4820    10.8120    22.7930 h1         1 UUB       0.034200
     61 H27        -20.0640    11.4300    23.6720 h1         1 UUB       0.034200
     62 H28        -22.7180    12.2170    26.0890 h1         1 UUB       0.034200
     63 H29        -21.3830    12.8790    25.1250 h1         1 UUB       0.034200
     64 H30        -22.9040    12.4090    24.3290 h1         1 UUB       0.034200
     65 H33        -19.5230    -1.6630    27.1520 ha         1 UUB       0.128000
     66 H31        -19.3220    -5.3340    23.4300 h4         1 UUB       0.222000
     67 H32        -14.7320    -2.6540    28.1850 hn         1 UUB       0.504000
     68 H34        -20.8970     6.4550    25.9510 hn         1 UUB       0.148000
     69 H39        -21.3240    -3.9260    22.5990 hn         1 UUB       0.353000
     70 Cl1        -18.5460    -6.9020    25.5270 cl         1 UUB      -0.201000
     71 C38        -20.8560    10.6690    23.6840 c3         1 UUB       0.147600
     72 C39        -22.1960    12.1410    25.1250 c3         1 UUB       0.147600
@<TRIPOS>BOND
     1     1    13 1   
     2     1    17 1   
     3     2     3 ar  
     4     2    10 ar  
     5     2    70 1   
     6     3    31 ar  
     7     3    37 1   
     8     4    30 ar  
     9     4    31 ar  
    10     4    32 1   
    11     5     6 ar  
    12     5    27 ar  
    13     5    38 1   
    14     6     9 ar  
    15     6    39 1   
    16     7     8 ar  
    17     7    27 ar  
    18     7    29 1   
    19     8     9 ar  
    20     8    35 1   
    21     9    40 1   
    22    10    29 1   
    23    10    30 ar  
    24    11    12 1   
    25    11    16 1   
    26    11    32 1   
    27    11    41 1   
    28    12    13 1   
    29    12    42 1   
    30    12    43 1   
    31    13    14 1   
    32    13    44 1   
    33    14    15 1   
    34    14    45 1   
    35    14    46 1   
    36    15    16 1   
    37    15    47 1   
    38    15    48 1   
    39    16    49 1   
    40    16    50 1   
    41    17    18 ar  
    42    17    22 ar  
    43    18    19 ar  
    44    18    51 1   
    45    19    20 ar  
    46    19    52 1   
    47    20    21 ar  
    48    20    33 1   
    49    21    22 ar  
    50    21    53 1   
    51    22    54 1   
    52    23    24 1   
    53    23    33 1   
    54    23    36 2   
    55    24    25 2   
    56    24    55 1   
    57    25    26 1   
    58    25    56 1   
    59    26    34 1   
    60    26    57 1   
    61    26    58 1   
    62    27    65 1   
    63    28    29 2   
    64    28    35 1   
    65    28    66 1   
    66    32    67 1   
    67    33    68 1   
    68    34    71 1   
    69    34    72 1   
    70    35    69 1   
    71    59    71 1   
    72    60    71 1   
    73    61    71 1   
    74    62    72 1   
    75    63    72 1   
    76    64    72 1   
@<TRIPOS>SUBSTRUCTURE
     1 UUB         1 TEMP              0 ****  ****    0 ROOT
