@<TRIPOS>MOLECULE
UUD
   21    22     1     0     0
SMALL
abcg2


@<TRIPOS>ATOM
      1 O            2.8710    -1.2570     0.1160 o          1 UUD      -0.598100
      2 C1           3.0860    -0.0520     0.0500 c          1 UUD       0.706500
      3 C            4.4750     0.5150     0.0060 c3         1 UUD      -0.151100
      4 N            2.1010     0.8940    -0.0010 ne         1 UUD      -0.773100
      5 C2           0.8710     0.4830     0.0130 cd         1 UUD       0.580700
      6 S            0.2780    -1.1700     0.0920 ss         1 UUD       0.112800
      7 C8          -1.3770    -0.5980     0.0500 ca         1 UUD      -0.225000
      8 C3          -1.4250     0.7920    -0.0190 ca         1 UUD       0.003800
      9 N1          -0.1620     1.3410    -0.0360 na         1 UUD      -0.330600
     10 C7          -2.5430    -1.3460     0.0770 ca         1 UUD      -0.041000
     11 C6          -3.7570    -0.6760     0.0320 ca         1 UUD      -0.128000
     12 C5          -3.7990     0.7170    -0.0390 ca         1 UUD      -0.076000
     13 C4          -2.6350     1.4690    -0.0640 ca         1 UUD      -0.125000
     14 HC1          4.6370     1.0140    -0.9510 hc         1 UUD       0.061700
     15 HC2          4.6020     1.2720     0.7810 hc         1 UUD       0.061700
     16 HC3          5.2270    -0.2600     0.1320 hc         1 UUD       0.061700
     17 H1           0.0110     2.3360    -0.0850 hn         1 UUD       0.369000
     18 H7          -2.5080    -2.4260     0.1300 ha         1 UUD       0.128000
     19 H4          -2.6670     2.5490    -0.1180 ha         1 UUD       0.124000
     20 H6          -4.6790    -1.2410     0.0520 ha         1 UUD       0.120000
     21 H5          -4.7550     1.2220    -0.0750 ha         1 UUD       0.119000
@<TRIPOS>BOND
     1     1     2 2   
     2     2     3 1   
     3     2     4 1   
     4     3    14 1   
     5     3    15 1   
     6     3    16 1   
     7     4     5 2   
     8     5     6 1   
     9     5     9 1   
    10     6     7 1   
    11     7     8 ar  
    12     7    10 ar  
    13     8     9 1   
    14     8    13 ar  
    15     9    17 1   
    16    10    11 ar  
    17    10    18 1   
    18    11    12 ar  
    19    11    20 1   
    20    12    13 ar  
    21    12    21 1   
    22    13    19 1   
@<TRIPOS>SUBSTRUCTURE
     1 UUD         1 TEMP              0 ****  ****    0 ROOT
