@<TRIPOS>MOLECULE
UUD
   21    22     1     0     0
SMALL
No Charge or Current Charge


@<TRIPOS>ATOM
      1 O            3.3540    -0.5490     1.7180 o          1 UUD      -0.598100
      2 C1           3.1650     0.1860     0.7630 c          1 UUD       0.706500
      3 C            4.0760     0.2170    -0.4580 c3         1 UUD      -0.151100
      4 N            2.1160     1.0830     0.6800 ne         1 UUD      -0.773100
      5 C2           0.9200     0.6130     0.4460 cd         1 UUD       0.580700
      6 S            0.4610    -1.0790     0.0480 ss         1 UUD       0.112800
      7 C8          -1.2080    -0.5220    -0.0670 ca         1 UUD      -0.225000
      8 C3          -1.3320     0.8310     0.1800 ca         1 UUD       0.003800
      9 N1          -0.1530     1.5010     0.4670 na         1 UUD      -0.330600
     10 C7          -2.3200    -1.3220    -0.3710 ca         1 UUD      -0.041000
     11 C6          -3.5900    -0.7150    -0.4230 ca         1 UUD      -0.128000
     12 C5          -3.7260     0.6670    -0.1730 ca         1 UUD      -0.076000
     13 C4          -2.5920     1.4470     0.1300 ca         1 UUD      -0.125000
     14 HC1          3.4770     0.0380    -1.3580 hc         1 UUD       0.061700
     15 HC2          4.4280     1.2430    -0.6130 hc         1 UUD       0.061700
     16 HC3          4.9090    -0.4900    -0.3790 hc         1 UUD       0.061700
     17 H1          -0.0530     2.4850     0.6660 hn         1 UUD       0.369000
     18 H7          -2.2070    -2.3870    -0.5630 ha         1 UUD       0.128000
     19 H4          -2.6960     2.5120     0.3230 ha         1 UUD       0.124000
     20 H6          -4.4670    -1.3140    -0.6570 ha         1 UUD       0.120000
     21 H5          -4.7090     1.1320    -0.2150 ha         1 UUD       0.119000
@<TRIPOS>BOND
     1     1     2 2   
     2     2     3 1   
     3     2     4 1   
     4     3    14 1   
     5     3    15 1   
     6     3    16 1   
     7     4     5 2   
     8     5     6 1   
     9     5     9 1   
    10     6     7 1   
    11     7     8 ar  
    12     7    10 ar  
    13     8     9 1   
    14     8    13 ar  
    15     9    17 1   
    16    10    11 ar  
    17    10    18 1   
    18    11    12 ar  
    19    11    20 1   
    20    12    13 ar  
    21    12    21 1   
    22    13    19 1   
@<TRIPOS>SUBSTRUCTURE
     1 UUD         1 TEMP              0 ****  ****    0 ROOT
