@<TRIPOS>MOLECULE
UUF
   53    58     1     0     0
SMALL
No Charge or Current Charge


@<TRIPOS>ATOM
      1 N1           7.6330    -6.6770    15.1690 na         1 UUF      -0.011200
      2 N3           1.5690    -3.8010    17.0430 nb         1 UUF      -0.271000
      3 C4           4.8410    -4.7020    16.9250 ca         1 UUF      -0.073000
      4 C5           4.6460    -3.5120    17.6400 ca         1 UUF       0.002800
      5 C6           2.2260    -3.5290    18.1920 ca         1 UUF       0.272500
      6 C7           0.3360    -4.3330    17.1390 ca         1 UUF       0.183900
      7 C8           0.3180    -4.3620    19.4260 ca         1 UUF       0.410900
      8 C10         -0.6780    -5.3550    22.9510 cy         1 UUF      -0.091900
      9 C15         -1.0920    -3.3720    22.5630 cy         1 UUF      -0.091900
     10 C17          1.6060    -3.8110    19.4260 ca         1 UUF      -0.297000
     11 C20          6.9600    -2.8720    17.4260 ca         1 UUF      -0.039000
     12 C21          7.1930    -4.0590    16.6980 ca         1 UUF      -0.139000
     13 C12         -3.3460    -4.8670    22.8260 c3         1 UUF       0.212000
     14 C14         -4.3550    -3.8820    22.1890 c3         1 UUF      -0.117100
     15 C11         -1.9150    -4.6820    22.2380 cy         1 UUF      -0.092000
     16 C9           0.0120    -4.3270    21.9840 cy         1 UUF       0.205500
     17 C16         -1.8110    -4.9600    20.7210 c5         1 UUF       0.234800
     18 N5          -0.3700    -4.6760    20.6160 nh         1 UUF      -0.781300
     19 N4          -0.3220    -4.6280    18.2740 nb         1 UUF      -0.275000
     20 N2           3.5150    -2.9840    18.2300 na         1 UUF       0.043100
     21 N6           3.7640    -1.7560    18.8560 nc         1 UUF      -0.506100
     22 C18          5.0770    -1.5540    18.6440 cd         1 UUF       0.378800
     23 C19          5.6580    -2.6420    17.8810 ca         1 UUF      -0.231900
     24 C            6.1440    -4.9850    16.4390 ca         1 UUF       0.004000
     25 C1           6.4250    -6.2110    15.6800 cc         1 UUF      -0.093000
     26 N            7.5070    -7.8850    14.4950 nc         1 UUF      -0.516800
     27 C3           6.2140    -8.1480    14.5970 cd         1 UUF       0.239900
     28 C2           5.5090    -7.1550    15.3110 cd         1 UUF      -0.210000
     29 H1           8.5370    -6.2150    15.2580 hn         1 UUF       0.369000
     30 H2           4.0090    -5.3790    16.7600 ha         1 UUF       0.158000
     31 H3          -0.1800    -4.5470    16.2050 h5         1 UUF       0.046100
     32 H4          -0.5050    -6.4120    22.7220 hc         1 UUF       0.072950
     33 H5          -0.5540    -5.2060    24.0320 hc         1 UUF       0.072950
     34 H6          -4.8150    -6.4630    23.1560 hc         1 UUF       0.044867
     35 H7          -3.9640    -6.5910    21.6120 hc         1 UUF       0.044867
     36 H8          -3.1350    -7.0300    23.1190 hc         1 UUF       0.044867
     37 H9          -1.0020    -3.0590    23.6120 hc         1 UUF       0.072950
     38 H10         -1.3260    -2.4920    21.9540 hc         1 UUF       0.072950
     39 H11          2.1270    -3.6000    20.3510 ha         1 UUF       0.153000
     40 H12          7.7630    -2.1650    17.6250 ha         1 UUF       0.121000
     41 H13          8.1980    -4.2550    16.3350 ha         1 UUF       0.110000
     42 H14         -4.2410    -4.7150    24.5560 ho         1 UUF       0.442000
     43 H15         -5.3390    -3.9630    22.6670 hc         1 UUF       0.044867
     44 H16         -4.0120    -2.8460    22.2960 hc         1 UUF       0.044867
     45 H17         -4.4900    -4.0870    21.1210 hc         1 UUF       0.044867
     46 H18          1.0620    -4.0830    22.1880 h1         1 UUF       0.103700
     47 H19         -2.4100    -4.2740    20.1060 h1         1 UUF       0.064200
     48 H20         -2.0440    -5.9950    20.4350 h1         1 UUF       0.064200
     49 H21          5.5430    -0.6580    19.0340 h4         1 UUF       0.053800
     50 H22          5.8190    -9.0520    14.1500 h4         1 UUF       0.037100
     51 H23          4.4450    -7.1640    15.5120 ha         1 UUF       0.148000
     52 C13         -3.8430    -6.3240    22.6690 c3         1 UUF      -0.117100
     53 O           -3.3260    -4.5870    24.2280 oh         1 UUF      -0.667000
@<TRIPOS>BOND
     1     1    25 1   
     2     1    26 1   
     3     1    29 1   
     4     2     5 ar  
     5     2     6 ar  
     6     3     4 ar  
     7     3    24 ar  
     8     3    30 1   
     9     4    20 1   
    10     4    23 ar  
    11     5    10 ar  
    12     5    20 1   
    13     6    19 ar  
    14     6    31 1   
    15     7    10 ar  
    16     7    18 1   
    17     7    19 ar  
    18     8    15 1   
    19     8    16 1   
    20     8    32 1   
    21     8    33 1   
    22     9    15 1   
    23     9    16 1   
    24     9    37 1   
    25     9    38 1   
    26    10    39 1   
    27    11    12 ar  
    28    11    23 ar  
    29    11    40 1   
    30    12    24 ar  
    31    12    41 1   
    32    13    14 1   
    33    13    15 1   
    34    13    52 1   
    35    13    53 1   
    36    14    43 1   
    37    14    44 1   
    38    14    45 1   
    39    15    17 1   
    40    16    18 1   
    41    16    46 1   
    42    17    18 1   
    43    17    47 1   
    44    17    48 1   
    45    20    21 1   
    46    21    22 2   
    47    22    23 1   
    48    22    49 1   
    49    24    25 1   
    50    25    28 2   
    51    26    27 2   
    52    27    28 1   
    53    27    50 1   
    54    28    51 1   
    55    34    52 1   
    56    35    52 1   
    57    36    52 1   
    58    42    53 1   
@<TRIPOS>SUBSTRUCTURE
     1 UUF         1 TEMP              0 ****  ****    0 ROOT
