@<TRIPOS>MOLECULE
UUF
   53    58     1     0     0
SMALL
abcg2


@<TRIPOS>ATOM
      1 N1           7.5340    -6.2430    14.4920 na         1 UUF      -0.011200
      2 N3           2.2470    -5.1860    17.9160 nb         1 UUF      -0.271000
      3 C4           5.0040    -4.9200    16.8430 ca         1 UUF      -0.073000
      4 C5           4.8990    -4.0630    17.9390 ca         1 UUF       0.002800
      5 C6           2.5700    -4.3070    18.8790 ca         1 UUF       0.272500
      6 C7           1.0090    -5.6660    17.9820 ca         1 UUF       0.183900
      7 C8           0.4040    -4.4870    19.8380 ca         1 UUF       0.410900
      8 C10         -0.8860    -4.4280    23.0150 cy         1 UUF      -0.091900
      9 C15         -1.8610    -2.7970    22.0540 cy         1 UUF      -0.091900
     10 C17          1.6960    -3.9170    19.8720 ca         1 UUF      -0.297000
     11 C20          7.1940    -3.2950    17.6470 ca         1 UUF      -0.039000
     12 C21          7.2980    -4.1340    16.5590 ca         1 UUF      -0.139000
     13 C12         -3.5630    -4.7460    22.8290 c3         1 UUF       0.212000
     14 C14         -4.7310    -4.3140    21.9420 c3         1 UUF      -0.117100
     15 C11         -2.2360    -4.3010    22.2400 cy         1 UUF      -0.092000
     16 C9          -0.4380    -3.3890    21.9600 cy         1 UUF       0.205500
     17 C16         -1.8380    -4.8720    20.8630 c5         1 UUF       0.234800
     18 N5          -0.5480    -4.1750    20.7220 nh         1 UUF      -0.781300
     19 N4           0.0720    -5.3810    18.8700 nb         1 UUF      -0.275000
     20 N2           3.8710    -3.7900    18.8280 na         1 UUF       0.043100
     21 N6           4.2640    -2.8630    19.7590 nc         1 UUF      -0.506100
     22 C18          5.5040    -2.5440    19.4850 cd         1 UUF       0.378800
     23 C19          5.9840    -3.2570    18.3480 ca         1 UUF      -0.231900
     24 C            6.2140    -4.9510    16.1540 ca         1 UUF       0.004000
     25 C1           6.3410    -5.8380    15.0000 cc         1 UUF      -0.093000
     26 N            7.4100    -7.0610    13.4300 nc         1 UUF      -0.516800
     27 C3           6.0950    -7.1750    13.2460 cd         1 UUF       0.239900
     28 C2           5.3760    -6.4350    14.1980 cd         1 UUF      -0.210000
     29 H1           8.4540    -6.0400    14.8500 hn         1 UUF       0.369000
     30 H2           4.1770    -5.5430    16.5520 ha         1 UUF       0.158000
     31 H3           0.7360    -6.3820    17.2110 h5         1 UUF       0.046100
     32 H4          -0.3770    -5.3920    23.0140 hc         1 UUF       0.072950
     33 H5          -0.9480    -4.0100    24.0160 hc         1 UUF       0.072950
     34 H6          -4.5110    -6.5410    23.5640 hc         1 UUF       0.044867
     35 H7          -3.5280    -6.8040    22.1210 hc         1 UUF       0.044867
     36 H8          -2.7430    -6.5580    23.6910 hc         1 UUF       0.044867
     37 H9          -2.0140    -2.2220    22.9630 hc         1 UUF       0.072950
     38 H10         -2.2450    -2.2730    21.1790 hc         1 UUF       0.072950
     39 H11          1.9940    -3.2130    20.6290 ha         1 UUF       0.153000
     40 H12          8.0270    -2.6730    17.9490 ha         1 UUF       0.121000
     41 H13          8.2210    -4.1500    15.9950 ha         1 UUF       0.110000
     42 H14         -4.4960    -4.3310    24.5070 ho         1 UUF       0.442000
     43 H15         -5.6760    -4.5630    22.4300 hc         1 UUF       0.044867
     44 H16         -4.7030    -3.2380    21.7690 hc         1 UUF       0.044867
     45 H17         -4.7070    -4.8230    20.9770 hc         1 UUF       0.044867
     46 H18          0.4630    -2.7920    22.0410 h1         1 UUF       0.103700
     47 H19         -2.5300    -4.6000    20.0670 h1         1 UUF       0.064200
     48 H20         -1.7040    -5.9530    20.8670 h1         1 UUF       0.064200
     49 H21          6.0270    -1.8220    20.0940 h4         1 UUF       0.053800
     50 H22          5.7140    -7.7790    12.4370 h4         1 UUF       0.037100
     51 H23          4.3080    -6.3300    14.2830 ha         1 UUF       0.148000
     52 C13         -3.5830    -6.2570    23.0630 c3         1 UUF      -0.117100
     53 O           -3.6600    -4.0700    24.1010 oh         1 UUF      -0.667000
@<TRIPOS>BOND
     1     1    25 1   
     2     1    26 1   
     3     1    29 1   
     4     2     5 ar  
     5     2     6 ar  
     6     3     4 ar  
     7     3    24 ar  
     8     3    30 1   
     9     4    20 1   
    10     4    23 ar  
    11     5    10 ar  
    12     5    20 1   
    13     6    19 ar  
    14     6    31 1   
    15     7    10 ar  
    16     7    18 1   
    17     7    19 ar  
    18     8    15 1   
    19     8    16 1   
    20     8    32 1   
    21     8    33 1   
    22     9    15 1   
    23     9    16 1   
    24     9    37 1   
    25     9    38 1   
    26    10    39 1   
    27    11    12 ar  
    28    11    23 ar  
    29    11    40 1   
    30    12    24 ar  
    31    12    41 1   
    32    13    14 1   
    33    13    15 1   
    34    13    52 1   
    35    13    53 1   
    36    14    43 1   
    37    14    44 1   
    38    14    45 1   
    39    15    17 1   
    40    16    18 1   
    41    16    46 1   
    42    17    18 1   
    43    17    47 1   
    44    17    48 1   
    45    20    21 1   
    46    21    22 2   
    47    22    23 1   
    48    22    49 1   
    49    24    25 1   
    50    25    28 2   
    51    26    27 2   
    52    27    28 1   
    53    27    50 1   
    54    28    51 1   
    55    34    52 1   
    56    35    52 1   
    57    36    52 1   
    58    42    53 1   
@<TRIPOS>SUBSTRUCTURE
     1 UUF         1 TEMP              0 ****  ****    0 ROOT
