@<TRIPOS>MOLECULE
UUG
   20    20     1     0     0
SMALL
bcc


@<TRIPOS>ATOM
      1 C4         -22.2160    22.2940     9.0280 ca         1 UUG      -0.112300
      2 C5         -21.7230    23.3320     8.0650 c3         1 UUG       0.197700
      3 C6         -21.3880    21.7990    10.0200 ca         1 UUG      -0.078000
      4 C7         -21.8160    20.8510    10.9440 ca         1 UUG      -0.146000
      5 C          -23.1210    20.4080    10.8540 ca         1 UUG       0.029100
      6 O          -24.3060    22.3330     7.9910 os         1 UUG      -0.309900
      7 C1         -23.9930    20.8770     9.8800 ca         1 UUG      -0.204000
      8 C2         -23.5400    21.8260     8.9680 ca         1 UUG       0.169100
      9 C3         -25.6370    21.8760     7.8510 c3         1 UUG       0.123700
     10 O1         -22.2810    24.5810     8.4200 oh         1 UUG      -0.587800
     11 BR         -23.7490    19.1210    12.0880 br         1 UUG      -0.102100
     12 H1         -21.9900    23.0520     7.0400 h1         1 UUG       0.026200
     13 H2         -20.6270    23.3560     8.1090 h1         1 UUG       0.026200
     14 H3         -20.3670    22.1570    10.0770 ha         1 UUG       0.136000
     15 H4         -21.1400    20.4810    11.7020 ha         1 UUG       0.151000
     16 H5         -25.0070    20.5050     9.8400 ha         1 UUG       0.150000
     17 H6         -26.0570    22.4130     7.0040 h1         1 UUG       0.043367
     18 H7         -25.6810    20.8030     7.6460 h1         1 UUG       0.043367
     19 H8         -26.2390    22.0930     8.7360 h1         1 UUG       0.043367
     20 H9         -22.0480    25.2130     7.7330 ho         1 UUG       0.401000
@<TRIPOS>BOND
     1     1     2 1   
     2     1     3 ar  
     3     1     8 ar  
     4     2    10 1   
     5     2    12 1   
     6     2    13 1   
     7     3     4 ar  
     8     3    14 1   
     9     4     5 ar  
    10     4    15 1   
    11     5     7 ar  
    12     5    11 1   
    13     6     8 1   
    14     6     9 1   
    15     7     8 ar  
    16     7    16 1   
    17     9    17 1   
    18     9    18 1   
    19     9    19 1   
    20    10    20 1   
@<TRIPOS>SUBSTRUCTURE
     1 UUG         1 TEMP              0 ****  ****    0 ROOT
