@<TRIPOS>MOLECULE
UUG
   20    20     1     0     0
SMALL
No Charge or Current Charge


@<TRIPOS>ATOM
      1 C4         -22.2550    22.3310     9.0280 ca         1 UUG      -0.112300
      2 C5         -21.7520    23.3750     8.0360 c3         1 UUG       0.220900
      3 C6         -21.3890    21.8840    10.0460 ca         1 UUG      -0.060000
      4 C7         -21.8170    20.9210    10.9730 ca         1 UUG      -0.128000
      5 C          -23.1160    20.3990    10.8890 ca         1 UUG       0.029100
      6 O          -24.4010    22.2550     7.9370 os         1 UUG      -0.333100
      7 C1         -23.9890    20.8350     9.8810 ca         1 UUG      -0.186000
      8 C2         -23.5650    21.8040     8.9430 ca         1 UUG       0.169100
      9 C3         -25.7490    21.7770     7.7780 c3         1 UUG       0.146900
     10 O1         -21.8050    24.6820     8.6200 oh         1 UUG      -0.650000
     11 Br         -23.6990    19.0880    12.1520 br         1 UUG      -0.102100
     12 H1         -22.3450    23.3460     7.1130 h1         1 UUG       0.026200
     13 H2         -20.7180    23.1300     7.7580 h1         1 UUG       0.026200
     14 H3         -20.3800    22.2860    10.1180 ha         1 UUG       0.118000
     15 H4         -21.1430    20.5810    11.7560 ha         1 UUG       0.133000
     16 H5         -24.9880    20.4110     9.8430 ha         1 UUG       0.132000
     17 H6         -26.2270    22.2680     6.9210 h1         1 UUG       0.043367
     18 H7         -25.7610    20.6940     7.5990 h1         1 UUG       0.043367
     19 H8         -26.3480    21.9950     8.6710 h1         1 UUG       0.043367
     20 H9         -21.4810    25.3090     7.9360 ho         1 UUG       0.440000
@<TRIPOS>BOND
     1     1     2 1   
     2     1     3 ar  
     3     1     8 ar  
     4     2    10 1   
     5     2    12 1   
     6     2    13 1   
     7     3     4 ar  
     8     3    14 1   
     9     4     5 ar  
    10     4    15 1   
    11     5     7 ar  
    12     5    11 1   
    13     6     8 1   
    14     6     9 1   
    15     7     8 ar  
    16     7    16 1   
    17     9    17 1   
    18     9    18 1   
    19     9    19 1   
    20    10    20 1   
@<TRIPOS>SUBSTRUCTURE
     1 UUG         1 TEMP              0 ****  ****    0 ROOT
