@<TRIPOS>MOLECULE
UUI
   55    58     1     0     0
SMALL
abcg2


@<TRIPOS>ATOM
      1 CAW        -10.4320   -17.1700    16.0870 ca         1 UUI      -0.014000
      2 CAX        -11.6160   -17.8930    16.1400 ca         1 UUI       0.105000
      3 CLBC       -12.1190   -18.8000    14.7390 cl         1 UUI      -0.193000
      4 CAY        -12.4140   -17.9060    17.2740 ca         1 UUI      -0.054000
      5 CAZ        -11.9990   -17.1710    18.3790 ca         1 UUI       0.105000
      6 CLBB       -12.9890   -17.1750    19.8130 cl         1 UUI      -0.193000
      7 CBA        -10.8290   -16.4280    18.3650 ca         1 UUI      -0.014000
      8 CAV        -10.0620   -16.4360    17.2050 ca         1 UUI      -0.258500
      9 SAU         -8.5820   -15.4180    17.1580 sy         1 UUI       0.992100
     10 NBD         -7.9100   -15.3430    18.5170 n2         1 UUI      -0.802900
     11 OBE         -7.8650   -15.8670    15.9730 o          1 UUI      -0.546000
     12 N           -9.2070   -13.9240    16.9330 n3         1 UUI      -0.738500
     13 CA          -8.7680   -12.7760    17.7220 c6         1 UUI       0.170500
     14 C           -9.8860   -11.9870    18.4130 c          1 UUI       0.574000
     15 O           -9.5120   -11.1330    19.2220 o          1 UUI      -0.571000
     16 CB          -7.8520   -11.8680    16.8860 c6         1 UUI      -0.084400
     17 CAA         -8.4800   -11.5000    15.5430 c6         1 UUI      -0.076400
     18 CAB         -8.8980   -12.7560    14.7780 c6         1 UUI      -0.093400
     19 CAC         -9.8120   -13.6520    15.6170 c6         1 UUI       0.239500
     20 CAH        -11.2270   -13.0560    15.7860 c3         1 UUI      -0.051500
     21 CAN        -12.2510   -13.6190    14.8310 c2         1 UUI      -0.221200
     22 CAO        -12.1360   -14.6480    13.9990 c2         1 UUI      -0.308000
     23 CAK        -11.7600   -13.1910    17.2160 c3         1 UUI       0.131000
     24 NAJ        -11.1940   -12.2320    18.1740 n          1 UUI      -0.393800
     25 CAL        -12.1850   -11.5520    19.0030 c3         1 UUI       0.042700
     26 CAM        -12.8520   -12.4920    19.9820 ca         1 UUI       0.317300
     27 NAP        -12.0480   -13.2730    20.7140 nb         1 UUI      -0.653000
     28 CAQ        -12.6050   -14.0870    21.6110 ca         1 UUI       0.339900
     29 CAR        -13.9760   -14.1650    21.8280 ca         1 UUI      -0.163000
     30 CAS        -14.8070   -13.3610    21.0620 ca         1 UUI      -0.070000
     31 CAT        -14.2370   -12.5130    20.1210 ca         1 UUI      -0.159000
     32 HAW         -9.8200   -17.1700    15.1980 ha         1 UUI       0.157500
     33 HAY        -13.3330   -18.4740    17.3000 ha         1 UUI       0.146000
     34 HBA        -10.5270   -15.8500    19.2260 ha         1 UUI       0.157500
     35 HBD         -7.5210   -16.2490    18.7680 hn         1 UUI       0.437400
     36 HA          -8.1940   -13.1710    18.5550 h1         1 UUI       0.129700
     37 HB2         -6.9220   -12.4170    16.7170 hc         1 UUI       0.064700
     38 HB1         -7.6120   -10.9790    17.4660 hc         1 UUI       0.064700
     39 HAB         -7.7690   -10.9240    14.9480 hc         1 UUI       0.047700
     40 HAA         -9.3460   -10.8510    15.7060 hc         1 UUI       0.047700
     41 HAC         -9.4180   -12.4950    13.8540 hc         1 UUI       0.059200
     42 HAD         -8.0090   -13.3290    14.5030 hc         1 UUI       0.059200
     43 HAE         -9.8960   -14.6110    15.1200 h1         1 UUI       0.060700
     44 HAH        -11.1820   -11.9810    15.5850 hc         1 UUI       0.070700
     45 HAN        -13.2020   -13.0950    14.8650 ha         1 UUI       0.169000
     46 HAO        -12.9730   -14.9440    13.3780 ha         1 UUI       0.167000
     47 HB5        -11.2330   -15.2330    13.8870 ha         1 UUI       0.167000
     48 HAK        -12.8280   -12.9820    17.1950 h1         1 UUI       0.049700
     49 HB3        -11.6470   -14.2120    17.5720 h1         1 UUI       0.049700
     50 HAL        -11.6760   -10.7610    19.5500 h1         1 UUI       0.074700
     51 HB4        -12.9360   -11.0950    18.3570 h1         1 UUI       0.074700
     52 HAQ        -11.9250   -14.7110    22.1810 h4         1 UUI       0.023100
     53 HAR        -14.3730   -14.8470    22.5680 ha         1 UUI       0.124000
     54 HAS        -15.8820   -13.3980    21.1870 ha         1 UUI       0.119000
     55 HAT        -14.8520   -11.8770    19.4980 ha         1 UUI       0.120000
@<TRIPOS>BOND
     1     1     2 ar  
     2     1     8 ar  
     3     1    32 1   
     4     2     3 1   
     5     2     4 ar  
     6     4     5 ar  
     7     4    33 1   
     8     5     6 1   
     9     5     7 ar  
    10     7     8 ar  
    11     7    34 1   
    12     8     9 1   
    13     9    10 2   
    14     9    11 2   
    15     9    12 1   
    16    10    35 1   
    17    12    13 1   
    18    12    19 1   
    19    13    14 1   
    20    13    16 1   
    21    13    36 1   
    22    14    15 2   
    23    14    24 1   
    24    16    17 1   
    25    16    37 1   
    26    16    38 1   
    27    17    18 1   
    28    17    39 1   
    29    17    40 1   
    30    18    19 1   
    31    18    41 1   
    32    18    42 1   
    33    19    20 1   
    34    19    43 1   
    35    20    21 1   
    36    20    23 1   
    37    20    44 1   
    38    21    22 2   
    39    21    45 1   
    40    22    46 1   
    41    22    47 1   
    42    23    24 1   
    43    23    48 1   
    44    23    49 1   
    45    24    25 1   
    46    25    26 1   
    47    25    50 1   
    48    25    51 1   
    49    26    27 ar  
    50    26    31 ar  
    51    27    28 ar  
    52    28    29 ar  
    53    28    52 1   
    54    29    30 ar  
    55    29    53 1   
    56    30    31 ar  
    57    30    54 1   
    58    31    55 1   
@<TRIPOS>SUBSTRUCTURE
     1 UUI         1 TEMP              0 ****  ****    0 ROOT
