@<TRIPOS>MOLECULE
UUI
   55    58     1     0     0
SMALL
No Charge or Current Charge


@<TRIPOS>ATOM
      1 CAW         -8.8790   -17.3050    15.2300 ca         1 UUI      -0.014000
      2 CAX         -9.3100   -18.1680    14.2080 ca         1 UUI       0.105000
      3 ClBC        -8.3200   -18.3900    12.7710 cl         1 UUI      -0.193000
      4 CAY        -10.5330   -18.8500    14.3280 ca         1 UUI      -0.054000
      5 CAZ        -11.3260   -18.6680    15.4730 ca         1 UUI       0.105000
      6 ClBB       -12.8610   -19.5150    15.6210 cl         1 UUI      -0.193000
      7 CBA        -10.9000   -17.8070    16.5000 ca         1 UUI      -0.014000
      8 CAV         -9.6740   -17.1210    16.3800 ca         1 UUI      -0.258500
      9 SAU         -9.1390   -15.9850    17.6590 sy         1 UUI       0.992100
     10 NBD        -10.0690   -15.9160    18.8640 n2         1 UUI      -0.802900
     11 OBE         -7.6980   -16.1840    17.8090 o          1 UUI      -0.546000
     12 N           -9.3000   -14.4500    16.9500 n3         1 UUI      -0.738500
     13 CA          -8.6790   -13.2660    17.6430 c6         1 UUI       0.170500
     14 C           -9.5180   -12.6200    18.7910 c          1 UUI       0.574000
     15 O           -9.0970   -12.5910    19.9430 o          1 UUI      -0.571000
     16 CB          -8.2610   -12.2100    16.5700 c6         1 UUI      -0.084400
     17 CAA         -9.3690   -11.8630    15.5490 c6         1 UUI      -0.076400
     18 CAB         -9.9240   -13.1620    14.9300 c6         1 UUI      -0.093400
     19 CAC        -10.4310   -14.1490    16.0160 c6         1 UUI       0.239500
     20 CAH        -11.7960   -13.6660    16.6470 c3         1 UUI      -0.051500
     21 CAN        -12.8720   -14.7320    16.5030 c2         1 UUI      -0.221200
     22 CAO        -13.8560   -14.7260    15.5910 c2         1 UUI      -0.308000
     23 CAK        -11.7920   -13.1610    18.1090 c3         1 UUI       0.131000
     24 NAJ        -10.7960   -12.1270    18.4660 n          1 UUI      -0.393800
     25 CAL        -11.3230   -10.9410    19.2070 c3         1 UUI       0.042700
     26 CAM        -12.2800   -11.2100    20.3760 ca         1 UUI       0.317300
     27 NAP        -11.7270   -11.5050    21.5780 nb         1 UUI      -0.653000
     28 CAQ        -12.5530   -11.7370    22.6240 ca         1 UUI       0.339900
     29 CAR        -13.9530   -11.6760    22.5190 ca         1 UUI      -0.163000
     30 CAS        -14.5320   -11.3590    21.2810 ca         1 UUI      -0.070000
     31 CAT        -13.6760   -11.1190    20.1940 ca         1 UUI      -0.159000
     32 HAW         -7.9350   -16.7730    15.1210 ha         1 UUI       0.157500
     33 HAY        -10.8660   -19.5140    13.5360 ha         1 UUI       0.146000
     34 HBA        -11.5270   -17.6770    17.3800 ha         1 UUI       0.157500
     35 HBD         -9.4700   -16.0410    19.6850 hn         1 UUI       0.437400
     36 HA          -7.7520   -13.5780    18.1460 h1         1 UUI       0.129700
     37 HB2         -7.3940   -12.6030    16.0220 hc         1 UUI       0.064700
     38 HB1         -7.9100   -11.2950    17.0650 hc         1 UUI       0.064700
     39 HAB         -8.9570   -11.2210    14.7590 hc         1 UUI       0.047700
     40 HAA        -10.1710   -11.2860    16.0250 hc         1 UUI       0.047700
     41 HAC        -10.7250   -12.9320    14.2150 hc         1 UUI       0.059200
     42 HAD         -9.1330   -13.6520    14.3460 hc         1 UUI       0.059200
     43 HAE        -10.6790   -15.0540    15.4450 h1         1 UUI       0.060700
     44 HAH        -12.1370   -12.8020    16.0630 hc         1 UUI       0.070700
     45 HAN        -12.7960   -15.5500    17.2240 ha         1 UUI       0.169000
     46 HAO        -14.5960   -15.5280    15.5460 ha         1 UUI       0.167000
     47 HB5        -13.9600   -13.9260    14.8570 ha         1 UUI       0.167000
     48 HAK        -12.7970   -12.7670    18.2990 h1         1 UUI       0.049700
     49 HB3        -11.6730   -14.0070    18.7940 h1         1 UUI       0.049700
     50 HAL        -10.4760   -10.3540    19.5840 h1         1 UUI       0.074700
     51 HB4        -11.8390   -10.2980    18.4830 h1         1 UUI       0.074700
     52 HAQ        -12.0780   -11.9770    23.5750 h4         1 UUI       0.023100
     53 HAR        -14.5730   -11.8700    23.3900 ha         1 UUI       0.124000
     54 HAS        -15.6130   -11.2990    21.1660 ha         1 UUI       0.119000
     55 HAT        -14.0870   -10.8660    19.2200 ha         1 UUI       0.120000
@<TRIPOS>BOND
     1     1     2 ar  
     2     1     8 ar  
     3     1    32 1   
     4     2     3 1   
     5     2     4 ar  
     6     4     5 ar  
     7     4    33 1   
     8     5     6 1   
     9     5     7 ar  
    10     7     8 ar  
    11     7    34 1   
    12     8     9 1   
    13     9    10 2   
    14     9    11 2   
    15     9    12 1   
    16    10    35 1   
    17    12    13 1   
    18    12    19 1   
    19    13    14 1   
    20    13    16 1   
    21    13    36 1   
    22    14    15 2   
    23    14    24 1   
    24    16    17 1   
    25    16    37 1   
    26    16    38 1   
    27    17    18 1   
    28    17    39 1   
    29    17    40 1   
    30    18    19 1   
    31    18    41 1   
    32    18    42 1   
    33    19    20 1   
    34    19    43 1   
    35    20    21 1   
    36    20    23 1   
    37    20    44 1   
    38    21    22 2   
    39    21    45 1   
    40    22    46 1   
    41    22    47 1   
    42    23    24 1   
    43    23    48 1   
    44    23    49 1   
    45    24    25 1   
    46    25    26 1   
    47    25    50 1   
    48    25    51 1   
    49    26    27 ar  
    50    26    31 ar  
    51    27    28 ar  
    52    28    29 ar  
    53    28    52 1   
    54    29    30 ar  
    55    29    53 1   
    56    30    31 ar  
    57    30    54 1   
    58    31    55 1   
@<TRIPOS>SUBSTRUCTURE
     1 UUI         1 TEMP              0 ****  ****    0 ROOT
