@<TRIPOS>MOLECULE
UUJ
   14    14     1     0     0
SMALL
No Charge or Current Charge


@<TRIPOS>ATOM
      1 C4         -24.7840    21.4520     9.6170 ca         1 UUJ      -0.069900
      2 C5         -25.7870    21.1400    10.5500 ca         1 UUJ      -0.019000
      3 C6         -25.4560    20.4430    11.7250 ca         1 UUJ      -0.215000
      4 N          -20.6340    19.6870    11.4220 n1         1 UUJ      -0.445000
      5 C          -24.1270    20.0580    11.9690 ca         1 UUJ       0.192100
      6 O          -23.8330    19.3810    13.1200 oh         1 UUJ      -0.511100
      7 C1         -23.1170    20.3710    11.0320 ca         1 UUJ      -0.059000
      8 C2         -21.7500    19.9890    11.2550 cg         1 UUJ       0.334000
      9 C3         -23.4530    21.0700     9.8550 ca         1 UUJ      -0.007000
     10 Br         -25.2320    22.4000     8.0170 br         1 UUJ      -0.079100
     11 H1         -26.8170    21.4380    10.3620 ha         1 UUJ       0.133000
     12 H2         -26.2400    20.2070    12.4400 ha         1 UUJ       0.125000
     13 H3         -24.6630    19.2640    13.6310 ho         1 UUJ       0.477000
     14 H4         -22.6840    21.3170     9.1250 ha         1 UUJ       0.144000
@<TRIPOS>BOND
     1     1     2 ar  
     2     1     9 ar  
     3     1    10 1   
     4     2     3 ar  
     5     2    11 1   
     6     3     5 ar  
     7     3    12 1   
     8     4     8 3   
     9     5     6 1   
    10     5     7 ar  
    11     6    13 1   
    12     7     8 1   
    13     7     9 ar  
    14     9    14 1   
@<TRIPOS>SUBSTRUCTURE
     1 UUJ         1 TEMP              0 ****  ****    0 ROOT
