@<TRIPOS>MOLECULE
UUJ
   14    14     1     0     0
SMALL
bcc


@<TRIPOS>ATOM
      1 C4         -24.7780    21.4480     9.6200 ca         1 UUJ      -0.069900
      2 C5         -25.7730    21.1420    10.5430 ca         1 UUJ      -0.037000
      3 C6         -25.4620    20.4590    11.7040 ca         1 UUJ      -0.233000
      4 N          -20.7230    19.6750    11.4760 n1         1 UUJ      -0.355800
      5 C          -24.1510    20.0680    11.9610 ca         1 UUJ       0.192100
      6 O          -23.7760    19.4060    13.0540 oh         1 UUJ      -0.472100
      7 C1         -23.1580    20.3830    11.0260 ca         1 UUJ      -0.059000
      8 C2         -21.8140    19.9900    11.2790 cg         1 UUJ       0.244800
      9 C3         -23.4700    21.0730     9.8540 ca         1 UUJ      -0.025000
     10 BR         -25.2160    22.3800     8.0430 br         1 UUJ      -0.079100
     11 H1         -26.8000    21.4330    10.3660 ha         1 UUJ       0.151000
     12 H2         -26.2470    20.2260    12.4120 ha         1 UUJ       0.143000
     13 H3         -24.5280    19.2300    13.6330 ho         1 UUJ       0.438000
     14 H4         -22.6820    21.3020     9.1500 ha         1 UUJ       0.162000
@<TRIPOS>BOND
     1     1     2 ar  
     2     1     9 ar  
     3     1    10 1   
     4     2     3 ar  
     5     2    11 1   
     6     3     5 ar  
     7     3    12 1   
     8     4     8 3   
     9     5     6 1   
    10     5     7 ar  
    11     6    13 1   
    12     7     8 1   
    13     7     9 ar  
    14     9    14 1   
@<TRIPOS>SUBSTRUCTURE
     1 UUJ         1 TEMP              0 ****  ****    0 ROOT
