@<TRIPOS>MOLECULE
UUK
   77    78     1     0     0
SMALL
No Charge or Current Charge


@<TRIPOS>ATOM
      1 N1          11.0700    18.7320    17.4080 ns         1 UUK      -0.498900
      2 N3           9.5680    19.3350    14.4350 n          1 UUK      -0.416800
      3 C4           9.7410    18.7440    18.0250 c3         1 UUK       0.100000
      4 C5          12.1860    18.1300    17.9500 c          1 UUK       0.581100
      5 C6          13.4680    18.2280    17.0770 c3         1 UUK       0.053700
      6 C7          13.5240    17.0430    16.0730 c3         1 UUK      -0.085400
      7 C8          14.6090    17.1310    14.9640 c3         1 UUK      -0.059700
      8 C10         14.4010    18.3320    14.0110 c3         1 UUK      -0.091100
      9 C13         17.7770    20.8840    19.0550 c3         1 UUK      -0.108767
     10 C15         18.6010    18.7290    20.1040 c3         1 UUK      -0.108767
     11 C17         10.7780    21.3700    15.1240 ca         1 UUK      -0.107300
     12 C20         12.7270    22.3500    16.9090 ca         1 UUK      -0.105000
     13 C21         11.3660    22.4090    17.2520 ca         1 UUK      -0.109750
     14 C22         10.3940    21.9220    16.3610 ca         1 UUK      -0.097000
     15 C24          9.5570    17.4130    12.7990 ca         1 UUK      -0.107300
     16 C26          7.7280    16.9210    11.2580 ca         1 UUK      -0.109750
     17 C28          9.1040    15.1110    12.1230 ca         1 UUK      -0.109750
     18 O1           7.5730    19.5600    15.5530 o          1 UUK      -0.595100
     19 C1           8.5460    18.8640    15.2910 c          1 UUK       0.598100
     20 C2           8.7110    17.4870    15.9700 c3         1 UUK      -0.150400
     21 C3           8.8330    17.5980    17.5170 c3         1 UUK      -0.087400
     22 C9          14.6790    15.8120    14.1610 c3         1 UUK      -0.091100
     23 N2          14.6650    18.2380    17.9430 ns         1 UUK      -0.488900
     24 C11         15.7750    19.0090    17.7530 c          1 UUK       0.652100
     25 O2          16.6630    18.7210    18.7520 os         1 UUK      -0.474100
     26 C12         17.9590    19.3580    18.8470 c3         1 UUK       0.225000
     27 C14         18.8020    19.0110    17.5930 c3         1 UUK      -0.108767
     28 O3          15.9200    19.8090    16.8440 o          1 UUK      -0.554000
     29 O4          12.1560    17.5670    19.0380 o          1 UUK      -0.600100
     30 C16          9.7300    20.7830    14.1890 c3         1 UUK       0.149800
     31 C18         12.1430    21.3160    14.7840 ca         1 UUK      -0.097000
     32 C19         13.1150    21.8070    15.6730 ca         1 UUK      -0.109750
     33 C23         10.3770    18.4180    13.5990 c3         1 UUK       0.149800
     34 C25          8.4870    17.8490    11.9910 ca         1 UUK      -0.097000
     35 C27          8.0360    15.5520    11.3240 ca         1 UUK      -0.105000
     36 C29          9.8640    16.0390    12.8570 ca         1 UUK      -0.097000
     37 H7          11.1940    19.2220    16.5290 hn         1 UUK       0.314500
     38 H6           9.8400    18.6740    19.1170 h1         1 UUK       0.064700
     39 H5           9.2680    19.7100    17.8060 h1         1 UUK       0.064700
     40 H8          13.4100    19.1780    16.5330 h1         1 UUK       0.066700
     41 H10         12.5450    16.9370    15.5930 hc         1 UUK       0.055200
     42 H9          13.6740    16.1190    16.6460 hc         1 UUK       0.055200
     43 H11         15.5850    17.2590    15.4500 hc         1 UUK       0.052700
     44 H17         15.1780    18.3490    13.2370 hc         1 UUK       0.035033
     45 H15         13.4270    18.2730    13.5120 hc         1 UUK       0.035033
     46 H16         14.4550    19.2840    14.5500 hc         1 UUK       0.035033
     47 H21         17.0400    21.0840    19.8420 hc         1 UUK       0.049478
     48 H19         18.7260    21.3440    19.3540 hc         1 UUK       0.049478
     49 H20         17.4490    21.3860    18.1380 hc         1 UUK       0.049478
     50 H25         17.9920    18.9280    20.9940 hc         1 UUK       0.049478
     51 H26         18.6960    17.6420    19.9900 hc         1 UUK       0.049478
     52 H27         19.6020    19.1410    20.2780 hc         1 UUK       0.049478
     53 H32         13.4800    22.7240    17.5990 ha         1 UUK       0.113500
     54 H33         11.0640    22.8290    18.2090 ha         1 UUK       0.115000
     55 H34          9.3420    21.9630    16.6380 ha         1 UUK       0.110250
     56 H38          6.9020    17.2640    10.6380 ha         1 UUK       0.115000
     57 H40          9.3450    14.0520    12.1730 ha         1 UUK       0.115000
     58 H1           7.8310    16.8780    15.7350 hc         1 UUK       0.058200
     59 H2           9.5920    16.9580    15.5980 hc         1 UUK       0.058200
     60 H4           7.8320    17.7460    17.9420 hc         1 UUK       0.061700
     61 H3           9.2000    16.6440    17.9140 hc         1 UUK       0.061700
     62 H12         14.8870    14.9640    14.8230 hc         1 UUK       0.035033
     63 H13         13.7310    15.6200    13.6430 hc         1 UUK       0.035033
     64 H14         15.4770    15.8560    13.4100 hc         1 UUK       0.035033
     65 H18         14.6790    17.6430    18.7610 hn         1 UUK       0.332500
     66 H22         18.7660    17.9350    17.3850 hc         1 UUK       0.049478
     67 H23         18.4540    19.5470    16.7040 hc         1 UUK       0.049478
     68 H24         19.8510    19.2900    17.7490 hc         1 UUK       0.049478
     69 H28         10.0330    20.9520    13.1470 h1         1 UUK       0.056700
     70 H29          8.7760    21.3070    14.3280 h1         1 UUK       0.056700
     71 H30         12.4540    20.8870    13.8340 ha         1 UUK       0.110250
     72 H31         14.1690    21.7600    15.4080 ha         1 UUK       0.115000
     73 H36         11.0860    17.8900    14.2450 h1         1 UUK       0.056700
     74 H35         10.9810    19.0020    12.8920 h1         1 UUK       0.056700
     75 H37          8.2420    18.9080    11.9340 ha         1 UUK       0.110250
     76 H39          7.4480    14.8340    10.7560 ha         1 UUK       0.113500
     77 H41         10.6900    15.6870    13.4710 ha         1 UUK       0.110250
@<TRIPOS>BOND
     1     1     3 1   
     2     1     4 1   
     3     1    37 1   
     4     2    19 1   
     5     2    30 1   
     6     2    33 1   
     7     3    21 1   
     8     3    38 1   
     9     3    39 1   
    10     4     5 1   
    11     4    29 2   
    12     5     6 1   
    13     5    23 1   
    14     5    40 1   
    15     6     7 1   
    16     6    41 1   
    17     6    42 1   
    18     7     8 1   
    19     7    22 1   
    20     7    43 1   
    21     8    44 1   
    22     8    45 1   
    23     8    46 1   
    24     9    26 1   
    25     9    47 1   
    26     9    48 1   
    27     9    49 1   
    28    10    26 1   
    29    10    50 1   
    30    10    51 1   
    31    10    52 1   
    32    11    14 ar  
    33    11    30 1   
    34    11    31 ar  
    35    12    13 ar  
    36    12    32 ar  
    37    12    53 1   
    38    13    14 ar  
    39    13    54 1   
    40    14    55 1   
    41    15    33 1   
    42    15    34 ar  
    43    15    36 ar  
    44    16    34 ar  
    45    16    35 ar  
    46    16    56 1   
    47    17    35 ar  
    48    17    36 ar  
    49    17    57 1   
    50    18    19 2   
    51    19    20 1   
    52    20    21 1   
    53    20    58 1   
    54    20    59 1   
    55    21    60 1   
    56    21    61 1   
    57    22    62 1   
    58    22    63 1   
    59    22    64 1   
    60    23    24 1   
    61    23    65 1   
    62    24    25 1   
    63    24    28 2   
    64    25    26 1   
    65    26    27 1   
    66    27    66 1   
    67    27    67 1   
    68    27    68 1   
    69    30    69 1   
    70    30    70 1   
    71    31    32 ar  
    72    31    71 1   
    73    32    72 1   
    74    33    73 1   
    75    33    74 1   
    76    34    75 1   
    77    35    76 1   
    78    36    77 1   
@<TRIPOS>SUBSTRUCTURE
     1 UUK         1 TEMP              0 ****  ****    0 ROOT
