@<TRIPOS>MOLECULE
UUK
   77    78     1     0     0
SMALL
bcc


@<TRIPOS>ATOM
      1 N1          12.1030    18.7150    17.4730 ns         1 UUK      -0.565900
      2 N3           9.5790    19.1840    14.9230 n          1 UUK      -0.483800
      3 C4          10.9910    19.0190    18.3460 c3         1 UUK       0.100000
      4 C5          13.0920    17.8630    17.7790 c          1 UUK       0.648100
      5 C6          14.0720    17.5960    16.6350 c3         1 UUK       0.053700
      6 C7          13.7070    16.2610    15.9830 c3         1 UUK      -0.085400
      7 C8          14.5310    15.8850    14.7490 c3         1 UUK      -0.059700
      8 C10         14.4290    16.9300    13.6440 c3         1 UUK      -0.091100
      9 C13         17.3960    19.8770    20.0510 c3         1 UUK      -0.108767
     10 C15         19.3010    18.5540    19.1360 c3         1 UUK      -0.108767
     11 C17          9.6850    21.6530    14.9980 ca         1 UUK      -0.107300
     12 C20         10.6490    23.9340    16.3000 ca         1 UUK      -0.123000
     13 C21          9.2990    23.8200    15.9980 ca         1 UUK      -0.127750
     14 C22          8.8230    22.6830    15.3560 ca         1 UUK      -0.115000
     15 C24          9.8070    17.6770    12.9790 ca         1 UUK      -0.107300
     16 C26          9.8160    17.0540    10.6450 ca         1 UUK      -0.127750
     17 C28          7.9880    16.3880    12.0510 ca         1 UUK      -0.127750
     18 O1           8.1640    19.6350    16.5980 o          1 UUK      -0.595100
     19 C1           9.0010    18.8850    16.1130 c          1 UUK       0.665100
     20 C2           9.4060    17.6410    16.8780 c3         1 UUK      -0.150400
     21 C3           9.8660    17.9880    18.2950 c3         1 UUK      -0.087400
     22 C9          14.0770    14.5210    14.2380 c3         1 UUK      -0.091100
     23 N2          15.4290    17.5580    17.1120 ns         1 UUK      -0.555900
     24 C11         15.9990    18.6550    17.6570 c          1 UUK       0.768100
     25 O2          17.2120    18.3700    18.1220 os         1 UUK      -0.450900
     26 C12         18.0540    19.3550    18.7790 c3         1 UUK       0.201800
     27 C14         18.4220    20.4850    17.8260 c3         1 UUK      -0.108767
     28 O3          15.4560    19.7420    17.6860 o          1 UUK      -0.603000
     29 O4          13.1950    17.3010    18.8580 o          1 UUK      -0.600100
     30 C16          9.1680    20.4290    14.2840 c3         1 UUK       0.149800
     31 C18         11.0400    21.7820    15.2960 ca         1 UUK      -0.115000
     32 C19         11.5190    22.9110    15.9460 ca         1 UUK      -0.127750
     33 C23         10.4780    18.3420    14.1570 c3         1 UUK       0.149800
     34 C25         10.4120    17.6890    11.7280 ca         1 UUK      -0.115000
     35 C27          8.6020    16.4020    10.8040 ca         1 UUK      -0.123000
     36 C29          8.5870    17.0220    13.1300 ca         1 UUK      -0.115000
     37 H7          12.1360    19.1760    16.5780 hn         1 UUK       0.314500
     38 H6          11.3520    19.1160    19.3700 h1         1 UUK       0.064700
     39 H5          10.6150    20.0000    18.0530 h1         1 UUK       0.064700
     40 H8          13.9740    18.3920    15.8900 h1         1 UUK       0.066700
     41 H10         12.6510    16.3010    15.7020 hc         1 UUK       0.055200
     42 H9          13.7960    15.4690    16.7350 hc         1 UUK       0.055200
     43 H11         15.5830    15.7980    15.0400 hc         1 UUK       0.052700
     44 H17         14.9790    16.6100    12.7580 hc         1 UUK       0.035033
     45 H15         13.3880    17.0860    13.3480 hc         1 UUK       0.035033
     46 H16         14.8380    17.8950    13.9470 hc         1 UUK       0.035033
     47 H21         17.0840    19.0540    20.6950 hc         1 UUK       0.049478
     48 H19         18.1190    20.4750    20.6060 hc         1 UUK       0.049478
     49 H20         16.5340    20.5070    19.8450 hc         1 UUK       0.049478
     50 H25         19.0630    17.7300    19.8100 hc         1 UUK       0.049478
     51 H26         19.7780    18.1460    18.2440 hc         1 UUK       0.049478
     52 H27         20.0230    19.1980    19.6370 hc         1 UUK       0.049478
     53 H32         11.0220    24.8150    16.8070 ha         1 UUK       0.131500
     54 H33          8.6130    24.6110    16.2700 ha         1 UUK       0.133000
     55 H34          7.7660    22.5940    15.1360 ha         1 UUK       0.128250
     56 H38         10.2980    17.0770     9.6760 ha         1 UUK       0.133000
     57 H40          7.0400    15.8830    12.1840 ha         1 UUK       0.133000
     58 H1           8.5210    17.0020    16.9400 hc         1 UUK       0.058200
     59 H2          10.1700    17.0430    16.3880 hc         1 UUK       0.058200
     60 H4           9.0290    18.3740    18.8800 hc         1 UUK       0.061700
     61 H3          10.1870    17.0660    18.7840 hc         1 UUK       0.061700
     62 H12         14.1680    13.7530    15.0090 hc         1 UUK       0.035033
     63 H13         13.0320    14.5520    13.9210 hc         1 UUK       0.035033
     64 H14         14.6730    14.2030    13.3820 hc         1 UUK       0.035033
     65 H18         15.8740    16.6630    17.2420 hn         1 UUK       0.332500
     66 H22         18.8380    20.0940    16.8960 hc         1 UUK       0.049478
     67 H23         17.5730    21.1230    17.5880 hc         1 UUK       0.049478
     68 H24         19.1860    21.1090    18.2920 hc         1 UUK       0.049478
     69 H28          9.5550    20.4110    13.2630 h1         1 UUK       0.056700
     70 H29          8.0810    20.4750    14.1990 h1         1 UUK       0.056700
     71 H30         11.7360    21.0010    15.0120 ha         1 UUK       0.128250
     72 H31         12.5750    22.9920    16.1730 ha         1 UUK       0.133000
     73 H36         10.9190    17.5840    14.7990 h1         1 UUK       0.056700
     74 H35         11.3150    18.9490    13.8030 h1         1 UUK       0.056700
     75 H37         11.3570    18.2040    11.5950 ha         1 UUK       0.128250
     76 H39          8.1320    15.9100     9.9610 ha         1 UUK       0.131500
     77 H41          8.0940    17.0020    14.0950 ha         1 UUK       0.128250
@<TRIPOS>BOND
     1     1     3 1   
     2     1     4 1   
     3     1    37 1   
     4     2    19 1   
     5     2    30 1   
     6     2    33 1   
     7     3    21 1   
     8     3    38 1   
     9     3    39 1   
    10     4     5 1   
    11     4    29 2   
    12     5     6 1   
    13     5    23 1   
    14     5    40 1   
    15     6     7 1   
    16     6    41 1   
    17     6    42 1   
    18     7     8 1   
    19     7    22 1   
    20     7    43 1   
    21     8    44 1   
    22     8    45 1   
    23     8    46 1   
    24     9    26 1   
    25     9    47 1   
    26     9    48 1   
    27     9    49 1   
    28    10    26 1   
    29    10    50 1   
    30    10    51 1   
    31    10    52 1   
    32    11    14 ar  
    33    11    30 1   
    34    11    31 ar  
    35    12    13 ar  
    36    12    32 ar  
    37    12    53 1   
    38    13    14 ar  
    39    13    54 1   
    40    14    55 1   
    41    15    33 1   
    42    15    34 ar  
    43    15    36 ar  
    44    16    34 ar  
    45    16    35 ar  
    46    16    56 1   
    47    17    35 ar  
    48    17    36 ar  
    49    17    57 1   
    50    18    19 2   
    51    19    20 1   
    52    20    21 1   
    53    20    58 1   
    54    20    59 1   
    55    21    60 1   
    56    21    61 1   
    57    22    62 1   
    58    22    63 1   
    59    22    64 1   
    60    23    24 1   
    61    23    65 1   
    62    24    25 1   
    63    24    28 2   
    64    25    26 1   
    65    26    27 1   
    66    27    66 1   
    67    27    67 1   
    68    27    68 1   
    69    30    69 1   
    70    30    70 1   
    71    31    32 ar  
    72    31    71 1   
    73    32    72 1   
    74    33    73 1   
    75    33    74 1   
    76    34    75 1   
    77    35    76 1   
    78    36    77 1   
@<TRIPOS>SUBSTRUCTURE
     1 UUK         1 TEMP              0 ****  ****    0 ROOT
