@<TRIPOS>MOLECULE
UUL
   31    33     1     0     0
SMALL
No Charge or Current Charge


@<TRIPOS>ATOM
      1 C16         -4.0820     0.5330     0.6840 ca         1 UUL      -0.078500
      2 C19         -5.4790     0.6690     0.5650 ca         1 UUL      -0.163500
      3 C12         -6.2220    -0.3030    -0.1230 ca         1 UUL       0.141100
      4 O20         -7.5740    -0.1820    -0.2430 oh         1 UUL      -0.528100
      5 C18         -5.5730    -1.4120    -0.6860 ca         1 UUL      -0.163500
      6 C17         -4.1770    -1.5470    -0.5660 ca         1 UUL      -0.078500
      7 C10         -3.4210    -0.5710     0.1100 ca         1 UUL       0.227000
      8 N6          -2.0390    -0.7300     0.2220 nu         1 UUL      -0.941900
      9 C2          -0.9970     0.1240     0.1090 cc         1 UUL       0.718300
     10 N1           0.1870    -0.4250     0.1310 nd         1 UUL      -0.735000
     11 S4          -1.0880     1.8450    -0.1500 ss         1 UUL      -0.081400
     12 C5           0.6520     1.8370    -0.1970 cc         1 UUL      -0.281000
     13 C3           1.1540     0.5600    -0.0360 cd         1 UUL       0.387500
     14 C7           2.5950     0.2080    -0.0360 ca         1 UUL      -0.117500
     15 C8           3.5880     1.2020    -0.2100 ca         1 UUL      -0.079000
     16 C14          4.9530     0.8620    -0.2100 ca         1 UUL      -0.111000
     17 C11          5.3470    -0.4730    -0.0370 ca         1 UUL       0.125000
     18 Cl           7.0540    -0.8940    -0.0370 cl         1 UUL      -0.206000
     19 C13          4.3780    -1.4700     0.1370 ca         1 UUL      -0.111000
     20 C9           3.0120    -1.1350     0.1370 ca         1 UUL      -0.079000
     21 H1          -3.5210     1.2810     1.2360 ha         1 UUL       0.126500
     22 H2          -5.9730     1.5280     1.0140 ha         1 UUL       0.126500
     23 H3          -7.8550     0.6430     0.2070 ho         1 UUL       0.468000
     24 H4          -6.1480    -2.1670    -1.2150 ha         1 UUL       0.126500
     25 H5          -3.6820    -2.4090    -1.0070 ha         1 UUL       0.126500
     26 H6          -1.6880    -1.6780     0.1250 hn         1 UUL       0.510000
     27 H7           1.1800     2.7670    -0.3450 h4         1 UUL       0.160000
     28 H8           3.3160     2.2450    -0.3470 ha         1 UUL       0.127000
     29 H9           5.7060     1.6350    -0.3450 ha         1 UUL       0.128500
     30 H10          4.6830    -2.5050     0.2720 ha         1 UUL       0.128500
     31 H11          2.2810    -1.9280     0.2740 ha         1 UUL       0.127000
@<TRIPOS>BOND
     1     1     2 ar  
     2     1     7 ar  
     3     1    21 1   
     4     2     3 ar  
     5     2    22 1   
     6     3     4 1   
     7     3     5 ar  
     8     4    23 1   
     9     5     6 ar  
    10     5    24 1   
    11     6     7 ar  
    12     6    25 1   
    13     7     8 1   
    14     8     9 1   
    15     8    26 1   
    16     9    10 2   
    17     9    11 1   
    18    10    13 1   
    19    11    12 1   
    20    12    13 2   
    21    12    27 1   
    22    13    14 1   
    23    14    15 ar  
    24    14    20 ar  
    25    15    16 ar  
    26    15    28 1   
    27    16    17 ar  
    28    16    29 1   
    29    17    18 1   
    30    17    19 ar  
    31    19    20 ar  
    32    19    30 1   
    33    20    31 1   
@<TRIPOS>SUBSTRUCTURE
     1 UUL         1 TEMP              0 ****  ****    0 ROOT
