@<TRIPOS>MOLECULE
UUL
   31    33     1     0     0
SMALL
abcg2


@<TRIPOS>ATOM
      1 C16         -3.9670     0.2170     0.9980 ca         1 UUL      -0.078500
      2 C19         -5.2880     0.5930     0.8130 ca         1 UUL      -0.163500
      3 C12         -6.0600    -0.0230    -0.1690 ca         1 UUL       0.141100
      4 O20         -7.3500     0.2930    -0.3860 oh         1 UUL      -0.528100
      5 C18         -5.4900    -1.0140    -0.9670 ca         1 UUL      -0.163500
      6 C17         -4.1620    -1.3630    -0.7960 ca         1 UUL      -0.078500
      7 C10         -3.3880    -0.7520     0.1870 ca         1 UUL       0.227000
      8 N6          -2.0380    -1.1240     0.3630 nu         1 UUL      -0.941900
      9 C2          -0.9980    -0.2910     0.1340 cc         1 UUL       0.718300
     10 N1           0.2450    -0.6470     0.2080 nd         1 UUL      -0.735000
     11 S4          -1.2500     1.3770    -0.3120 ss         1 UUL      -0.081400
     12 C5           0.4630     1.5690    -0.3940 cc         1 UUL      -0.281000
     13 C3           1.0830     0.3970    -0.0950 cd         1 UUL       0.387500
     14 C7           2.5330     0.1780    -0.0620 ca         1 UUL      -0.117500
     15 C8           3.4290     1.1650    -0.4780 ca         1 UUL      -0.079000
     16 C14          4.7960     0.9570    -0.4380 ca         1 UUL      -0.111000
     17 C11          5.2840    -0.2580     0.0210 ca         1 UUL       0.125000
     18 CL           6.9950    -0.5260     0.0730 cl         1 UUL      -0.206000
     19 C13          4.4200    -1.2580     0.4350 ca         1 UUL      -0.111000
     20 C9           3.0530    -1.0350     0.3900 ca         1 UUL      -0.079000
     21 H1          -3.3910     0.6780     1.7900 ha         1 UUL       0.126500
     22 H2          -5.7210     1.3550     1.4510 ha         1 UUL       0.126500
     23 H3          -7.6300     0.9950     0.2120 ho         1 UUL       0.468000
     24 H4          -6.0850    -1.4980    -1.7300 ha         1 UUL       0.126500
     25 H5          -3.7210    -2.1200    -1.4330 ha         1 UUL       0.126500
     26 H6          -1.8120    -2.1080     0.3690 hn         1 UUL       0.510000
     27 H7           0.8920     2.5260    -0.6390 h4         1 UUL       0.160000
     28 H8           3.0670     2.1150    -0.8500 ha         1 UUL       0.127000
     29 H9           5.4730     1.7340    -0.7660 ha         1 UUL       0.128500
     30 H10          4.8030    -2.2050     0.7910 ha         1 UUL       0.128500
     31 H11          2.3820    -1.8190     0.7150 ha         1 UUL       0.127000
@<TRIPOS>BOND
     1     1     2 ar  
     2     1     7 ar  
     3     1    21 1   
     4     2     3 ar  
     5     2    22 1   
     6     3     4 1   
     7     3     5 ar  
     8     4    23 1   
     9     5     6 ar  
    10     5    24 1   
    11     6     7 ar  
    12     6    25 1   
    13     7     8 1   
    14     8     9 1   
    15     8    26 1   
    16     9    10 2   
    17     9    11 1   
    18    10    13 1   
    19    11    12 1   
    20    12    13 2   
    21    12    27 1   
    22    13    14 1   
    23    14    15 ar  
    24    14    20 ar  
    25    15    16 ar  
    26    15    28 1   
    27    16    17 ar  
    28    16    29 1   
    29    17    18 1   
    30    17    19 ar  
    31    19    20 ar  
    32    19    30 1   
    33    20    31 1   
@<TRIPOS>SUBSTRUCTURE
     1 UUL         1 TEMP              0 ****  ****    0 ROOT
