@<TRIPOS>MOLECULE
UUM
   25    26     1     0     0
SMALL
abcg2


@<TRIPOS>ATOM
      1 N1         -17.3960    17.1180    25.4940 ns         1 UUM      -0.350100
      2 N3         -18.8800    14.3260    27.1000 na         1 UUM       0.133800
      3 C4         -16.3660    17.7140    26.1150 c          1 UUM       0.524600
      4 C5         -18.0910    16.0100    25.9680 cc         1 UUM      -0.073400
      5 C6         -19.1360    15.3640    25.2860 cc         1 UUM       0.213900
      6 C8         -17.9540    15.3050    27.1470 cd         1 UUM      -0.173000
      7 N          -16.2430    19.2800    24.2460 nc         1 UUM      -0.363300
      8 O          -15.5040    20.3570    23.9050 os         1 UUM      -0.058700
      9 C1         -14.6000    20.6190    24.8610 cc         1 UUM       0.174300
     10 C2         -14.7350    19.7050    25.8530 cd         1 UUM      -0.199000
     11 C3         -15.7940    18.8860    25.4030 cd         1 UUM       0.225500
     12 N2         -19.6000    14.3490    25.9910 nd         1 UUM      -0.510800
     13 O1         -15.8950    17.3580    27.1860 o          1 UUM      -0.586100
     14 H1         -17.6950    17.4940    24.6060 hn         1 UUM       0.345500
     15 H2         -19.5490    15.6080    24.3180 h4         1 UUM       0.040100
     16 H3         -20.1270    13.5350    28.5830 h1         1 UUM       0.057367
     17 H4         -19.1510    12.3470    27.6970 h1         1 UUM       0.057367
     18 H5         -18.3890    13.4090    28.8890 h1         1 UUM       0.057367
     19 H6         -17.2920    15.4200    27.9860 h4         1 UUM       0.179000
     20 H7         -13.1170    21.6700    23.7460 hc         1 UUM       0.065033
     21 H8         -14.2570    22.7070    24.6020 hc         1 UUM       0.065033
     22 H9         -13.0070    21.8440    25.5000 hc         1 UUM       0.065033
     23 H10        -14.1700    19.6300    26.7660 ha         1 UUM       0.171000
     24 C7         -19.1580    13.3470    28.1250 c3         1 UUM       0.074900
     25 C          -13.6970    21.7730    24.6640 c3         1 UUM      -0.135400
@<TRIPOS>BOND
     1     1     3 1   
     2     1     4 1   
     3     1    14 1   
     4     2     6 1   
     5     2    12 1   
     6     2    24 1   
     7     3    11 1   
     8     3    13 2   
     9     4     5 1   
    10     4     6 2   
    11     5    12 2   
    12     5    15 1   
    13     6    19 1   
    14     7     8 1   
    15     7    11 2   
    16     8     9 1   
    17     9    10 2   
    18     9    25 1   
    19    10    11 1   
    20    10    23 1   
    21    16    24 1   
    22    17    24 1   
    23    18    24 1   
    24    20    25 1   
    25    21    25 1   
    26    22    25 1   
@<TRIPOS>SUBSTRUCTURE
     1 UUM         1 TEMP              0 ****  ****    0 ROOT
