@<TRIPOS>MOLECULE
UUM
   25    26     1     0     0
SMALL
No Charge or Current Charge


@<TRIPOS>ATOM
      1 N1         -17.3900    17.0910    25.5660 ns         1 UUM      -0.350100
      2 N3         -18.9330    14.2850    27.1100 na         1 UUM       0.133800
      3 C4         -16.3380    17.7510    26.1910 c          1 UUM       0.524600
      4 C5         -18.1190    15.9850    26.0030 cc         1 UUM      -0.073400
      5 C6         -19.1780    15.3640    25.3160 cc         1 UUM       0.213900
      6 C8         -17.9590    15.2890    27.1630 cd         1 UUM      -0.173000
      7 N          -16.2990    19.2740    24.2100 nc         1 UUM      -0.363300
      8 O          -15.5090    20.4170    23.8140 os         1 UUM      -0.058700
      9 C1         -14.5860    20.6700    24.7970 cc         1 UUM       0.174300
     10 C2         -14.7480    19.7560    25.7870 cd         1 UUM      -0.199000
     11 C3         -15.8100    18.9130    25.3940 cd         1 UUM       0.225500
     12 N2         -19.6970    14.3330    25.9500 nd         1 UUM      -0.510800
     13 O1         -15.8890    17.4160    27.2840 o          1 UUM      -0.586100
     14 H1         -17.6380    17.4980    24.6680 hn         1 UUM       0.345500
     15 H2         -19.5870    15.6440    24.3540 h4         1 UUM       0.040100
     16 H3         -20.2080    13.3500    28.5030 h1         1 UUM       0.057367
     17 H4         -19.0420    12.2620    27.6900 h1         1 UUM       0.057367
     18 H5         -18.4800    13.3850    28.9640 h1         1 UUM       0.057367
     19 H6         -17.2710    15.4060    27.9910 h4         1 UUM       0.179000
     20 H7         -13.0110    21.6830    23.7460 hc         1 UUM       0.065033
     21 H8         -14.1670    22.7620    24.5510 hc         1 UUM       0.065033
     22 H9         -12.9590    21.8830    25.5080 hc         1 UUM       0.065033
     23 H10        -14.1730    19.6880    26.7030 ha         1 UUM       0.171000
     24 C7         -19.1810    13.2570    28.1310 c3         1 UUM       0.074900
     25 C          -13.6280    21.8130    24.6420 c3         1 UUM      -0.135400
@<TRIPOS>BOND
     1     1     3 1   
     2     1     4 1   
     3     1    14 1   
     4     2     6 1   
     5     2    12 1   
     6     2    24 1   
     7     3    11 1   
     8     3    13 2   
     9     4     5 1   
    10     4     6 2   
    11     5    12 2   
    12     5    15 1   
    13     6    19 1   
    14     7     8 1   
    15     7    11 2   
    16     8     9 1   
    17     9    10 2   
    18     9    25 1   
    19    10    11 1   
    20    10    23 1   
    21    16    24 1   
    22    17    24 1   
    23    18    24 1   
    24    20    25 1   
    25    21    25 1   
    26    22    25 1   
@<TRIPOS>SUBSTRUCTURE
     1 UUM         1 TEMP              0 ****  ****    0 ROOT
