@<TRIPOS>MOLECULE
UUN
   30    31     1     0     0
SMALL
abcg2


@<TRIPOS>ATOM
      1 C            2.2760     0.3980    -0.0940 c3         1 UUN      -0.060400
      2 N            4.1360     1.8860    -0.1640 ns         1 UUN      -0.380400
      3 O            5.4310     2.2230    -0.4110 oh         1 UUN      -0.418100
      4 S            2.0020    -1.3860    -0.0130 ss         1 UUN      -0.151200
      5 C1           3.7770     0.5930    -0.1680 c          1 UUN       0.612100
      6 N1          -0.2940    -2.6440     0.0650 ns         1 UUN      -0.401400
      7 O1           4.5550    -0.3410    -0.1990 o          1 UUN      -0.550100
      8 C2           0.2540    -1.4100     0.0240 cc         1 UUN       0.508800
      9 N2          -0.4410    -0.3240     0.0080 nd         1 UUN      -0.685300
     10 C3          -1.6680    -2.8600     0.1110 c          1 UUN       0.564200
     11 C4          -2.4290    -1.6440     0.1040 cc         1 UUN      -0.360200
     12 C5          -1.8010    -0.4340     0.0410 cd         1 UUN       0.262400
     13 C6          -2.5350     0.8470     0.0190 ca         1 UUN      -0.062800
     14 C7          -1.8630     2.0380     0.2990 ca         1 UUN      -0.075500
     15 C8          -2.5400     3.2480     0.3000 ca         1 UUN      -0.120000
     16 C9          -3.8960     3.2900     0.0080 ca         1 UUN      -0.091000
     17 C10         -4.5720     2.1120    -0.2850 ca         1 UUN      -0.120000
     18 C11         -3.8990     0.9010    -0.2790 ca         1 UUN      -0.075500
     19 H            1.7820     0.8110    -0.9750 h1         1 UUN       0.102200
     20 HA           1.8570     0.8860     0.7860 h1         1 UUN       0.102200
     21 HN           3.4670     2.6320    -0.2950 hn         1 UUN       0.340500
     22 HO           5.8310     2.3980     0.4500 ho         1 UUN       0.450000
     23 HN1          0.2990    -3.4650     0.0680 hn         1 UUN       0.341500
     24 H4          -3.5030    -1.7340     0.1630 ha         1 UUN       0.216000
     25 H7          -0.8050     2.0150     0.5230 ha         1 UUN       0.121000
     26 H8          -2.0050     4.1610     0.5280 ha         1 UUN       0.115000
     27 H9          -4.4240     4.2350     0.0020 ha         1 UUN       0.115000
     28 H10         -5.6270     2.1360    -0.5230 ha         1 UUN       0.115000
     29 H11         -4.4450     0.0000    -0.5260 ha         1 UUN       0.121000
     30 O2          -2.1120    -3.9960     0.1530 o          1 UUN      -0.536000
@<TRIPOS>BOND
     1     1     4 1   
     2     1     5 1   
     3     1    19 1   
     4     1    20 1   
     5     2     3 1   
     6     2     5 1   
     7     2    21 1   
     8     3    22 1   
     9     4     8 1   
    10     5     7 2   
    11     6     8 1   
    12     6    10 1   
    13     6    23 1   
    14     8     9 2   
    15     9    12 1   
    16    10    11 1   
    17    10    30 2   
    18    11    12 2   
    19    11    24 1   
    20    12    13 1   
    21    13    14 ar  
    22    13    18 ar  
    23    14    15 ar  
    24    14    25 1   
    25    15    16 ar  
    26    15    26 1   
    27    16    17 ar  
    28    16    27 1   
    29    17    18 ar  
    30    17    28 1   
    31    18    29 1   
@<TRIPOS>SUBSTRUCTURE
     1 UUN         1 TEMP              0 ****  ****    0 ROOT
