@<TRIPOS>MOLECULE
UUN
   30    31     1     0     0
SMALL
No Charge or Current Charge


@<TRIPOS>ATOM
      1 C            2.3550     0.2760    -0.0450 c3         1 UUN      -0.060400
      2 N            4.1560     1.9500    -0.0060 ns         1 UUN      -0.380400
      3 O            5.5000     2.4280    -0.2670 oh         1 UUN      -0.418100
      4 S            1.9770    -1.5500    -0.0320 ss         1 UUN      -0.151200
      5 C1           3.8550     0.5920    -0.0590 c          1 UUN       0.612100
      6 N1          -0.4180    -2.8230    -0.0060 ns         1 UUN      -0.401400
      7 O1           4.7270    -0.2680    -0.1040 o          1 UUN      -0.550100
      8 C2           0.2150    -1.6230    -0.0170 cc         1 UUN       0.508800
      9 N2          -0.4090    -0.4490    -0.0170 nd         1 UUN      -0.685300
     10 C3          -1.7510    -2.9650     0.0060 c          1 UUN       0.564200
     11 C4          -2.4400    -1.6930     0.0060 cc         1 UUN      -0.360200
     12 C5          -1.8100    -0.4610    -0.0050 cd         1 UUN       0.262400
     13 C6          -2.5270     0.8480    -0.0050 ca         1 UUN      -0.062800
     14 C7          -1.7990     2.0650    -0.0160 ca         1 UUN      -0.075500
     15 C8          -2.4570     3.3070    -0.0160 ca         1 UUN      -0.120000
     16 C9          -3.8580     3.3620    -0.0050 ca         1 UUN      -0.091000
     17 C10         -4.5980     2.1720     0.0070 ca         1 UUN      -0.120000
     18 C11         -3.9420     0.9280     0.0070 ca         1 UUN      -0.075500
     19 H            1.9050     0.7340    -0.9330 h1         1 UUN       0.102200
     20 HA           1.9210     0.7420     0.8470 h1         1 UUN       0.102200
     21 HN           3.4070     2.6340    -0.1130 hn         1 UUN       0.340500
     22 HO           5.6860     3.0290     0.4930 ho         1 UUN       0.450000
     23 HN1          0.1280    -3.6710    -0.0070 hn         1 UUN       0.341500
     24 H4          -3.5140    -1.7960     0.0150 ha         1 UUN       0.216000
     25 H7          -0.7120     2.0620    -0.0250 ha         1 UUN       0.121000
     26 H8          -1.8780     4.2270    -0.0250 ha         1 UUN       0.115000
     27 H9          -4.3670     4.3240    -0.0050 ha         1 UUN       0.115000
     28 H10         -5.6850     2.2110     0.0160 ha         1 UUN       0.115000
     29 H11         -4.5590     0.0360     0.0160 ha         1 UUN       0.121000
     30 O2          -2.3000    -4.0530     0.0150 o          1 UUN      -0.536000
@<TRIPOS>BOND
     1     1     4 1   
     2     1     5 1   
     3     1    19 1   
     4     1    20 1   
     5     2     3 1   
     6     2     5 1   
     7     2    21 1   
     8     3    22 1   
     9     4     8 1   
    10     5     7 2   
    11     6     8 1   
    12     6    10 1   
    13     6    23 1   
    14     8     9 2   
    15     9    12 1   
    16    10    11 1   
    17    10    30 2   
    18    11    12 2   
    19    11    24 1   
    20    12    13 1   
    21    13    14 ar  
    22    13    18 ar  
    23    14    15 ar  
    24    14    25 1   
    25    15    16 ar  
    26    15    26 1   
    27    16    17 ar  
    28    16    27 1   
    29    17    18 ar  
    30    17    28 1   
    31    18    29 1   
@<TRIPOS>SUBSTRUCTURE
     1 UUN         1 TEMP              0 ****  ****    0 ROOT
