@<TRIPOS>MOLECULE
UUP
   25    27     1     0     0
SMALL
No Charge or Current Charge


@<TRIPOS>ATOM
      1 N1         -24.2590    11.3290    26.0760 nc         1 UUP      -0.578100
      2 N3         -22.0260    13.6520    27.8170 nc         1 UUP      -0.665000
      3 C4         -22.1020    12.1340    25.8910 cd         1 UUP      -0.352800
      4 C5         -23.1250    11.2920    25.3800 cd         1 UUP       0.448500
      5 C6         -24.7770    12.6290    28.0590 cc         1 UUP      -0.023000
      6 C7         -24.2050    13.5540    28.9340 cd         1 UUP      -0.229000
      7 C8         -22.8480    14.0400    28.7900 cd         1 UUP       0.391900
      8 N          -19.9380    13.1500    25.9730 ns         1 UUP      -0.482900
      9 C          -20.7650    12.2780    25.3130 c          1 UUP       0.655300
     10 O          -20.4110    11.6670    24.3160 o          1 UUP      -0.609100
     11 C1         -18.5890    13.4590    25.5900 cx         1 UUP       0.057700
     12 C2         -18.3410    14.7860    24.9160 cx         1 UUP      -0.137900
     13 C3         -17.8900    14.5660    26.3400 cx         1 UUP      -0.137900
     14 C9         -22.6300    12.7470    26.9880 cc         1 UUP       0.393500
     15 N2         -23.9090    12.2300    27.0460 na         1 UUP       0.120900
     16 H1         -23.0690    10.6470    24.5110 h4         1 UUP       0.069800
     17 H2         -25.7770    12.2160    28.0930 h4         1 UUP       0.168000
     18 H3         -24.7970    13.9310    29.7600 ha         1 UUP       0.147000
     19 H4         -22.4190    14.7580    29.4780 h4         1 UUP       0.034100
     20 H5         -20.3480    13.5950    26.7900 hn         1 UUP       0.341500
     21 H6         -17.9970    12.5990    25.2740 h1         1 UUP       0.085700
     22 H7         -17.5790    14.8210    24.1420 hc         1 UUP       0.075950
     23 H8         -19.1930    15.4400    24.7480 hc         1 UUP       0.075950
     24 H9         -16.8240    14.4540    26.5230 hc         1 UUP       0.075950
     25 H10        -18.4360    15.0770    27.1290 hc         1 UUP       0.075950
@<TRIPOS>BOND
     1     1     4 2   
     2     1    15 1   
     3     2     7 2   
     4     2    14 1   
     5     3     4 1   
     6     3     9 1   
     7     3    14 2   
     8     4    16 1   
     9     5     6 2   
    10     5    15 1   
    11     5    17 1   
    12     6     7 1   
    13     6    18 1   
    14     7    19 1   
    15     8     9 1   
    16     8    11 1   
    17     8    20 1   
    18     9    10 2   
    19    11    12 1   
    20    11    13 1   
    21    11    21 1   
    22    12    13 1   
    23    12    22 1   
    24    12    23 1   
    25    13    24 1   
    26    13    25 1   
    27    14    15 1   
@<TRIPOS>SUBSTRUCTURE
     1 UUP         1 TEMP              0 ****  ****    0 ROOT
