@<TRIPOS>MOLECULE
UUP
   25    27     1     0     0
SMALL
abcg2


@<TRIPOS>ATOM
      1 N1         -24.2210    11.5720    25.9850 nc         1 UUP      -0.578100
      2 N3         -22.1560    13.5340    28.0520 nc         1 UUP      -0.665000
      3 C4         -22.0630    12.2820    25.8890 cd         1 UUP      -0.352800
      4 C5         -23.1000    11.5550    25.2880 cd         1 UUP       0.448500
      5 C6         -24.7850    12.6150    28.0630 cc         1 UUP      -0.023000
      6 C7         -24.3160    13.3890    29.0780 cd         1 UUP      -0.229000
      7 C8         -22.9740    13.8290    29.0280 cd         1 UUP       0.391900
      8 N          -19.8710    13.1920    26.1190 ns         1 UUP      -0.482900
      9 C          -20.7060    12.4590    25.3590 c          1 UUP       0.655300
     10 O          -20.3740    11.9630    24.2890 o          1 UUP      -0.609100
     11 C1         -18.5210    13.4430    25.7380 cx         1 UUP       0.057700
     12 C2         -18.2390    14.4470    24.6660 cx         1 UUP      -0.137900
     13 C3         -17.9380    14.7700    26.0980 cx         1 UUP      -0.137900
     14 C9         -22.6350    12.7750    27.0590 cc         1 UUP       0.393500
     15 N2         -23.9340    12.3150    27.0590 na         1 UUP       0.120900
     16 H1         -23.0590    11.0140    24.3550 h4         1 UUP       0.069800
     17 H2         -25.7880    12.2190    27.9940 h4         1 UUP       0.168000
     18 H3         -24.9570    13.6580    29.9020 ha         1 UUP       0.147000
     19 H4         -22.5820    14.4430    29.8290 h4         1 UUP       0.034100
     20 H5         -20.1920    13.5320    27.0150 hn         1 UUP       0.341500
     21 H6         -17.8580    12.5850    25.7910 h1         1 UUP       0.085700
     22 H7         -17.4140    14.2510    23.9930 hc         1 UUP       0.075950
     23 H8         -19.0880    14.9380    24.2070 hc         1 UUP       0.075950
     24 H9         -16.9050    14.7930    26.4200 hc         1 UUP       0.075950
     25 H10        -18.5790    15.4820    26.6020 hc         1 UUP       0.075950
@<TRIPOS>BOND
     1     1     4 2   
     2     1    15 1   
     3     2     7 2   
     4     2    14 1   
     5     3     4 1   
     6     3     9 1   
     7     3    14 2   
     8     4    16 1   
     9     5     6 2   
    10     5    15 1   
    11     5    17 1   
    12     6     7 1   
    13     6    18 1   
    14     7    19 1   
    15     8     9 1   
    16     8    11 1   
    17     8    20 1   
    18     9    10 2   
    19    11    12 1   
    20    11    13 1   
    21    11    21 1   
    22    12    13 1   
    23    12    22 1   
    24    12    23 1   
    25    13    24 1   
    26    13    25 1   
    27    14    15 1   
@<TRIPOS>SUBSTRUCTURE
     1 UUP         1 TEMP              0 ****  ****    0 ROOT
