@<TRIPOS>MOLECULE
UUQ
   46    49     1     0     0
SMALL
abcg2


@<TRIPOS>ATOM
      1 C4          42.9140    -3.4480    11.4740 ca         1 UUQ      -0.052000
      2 C5          42.8450    -4.8450    11.7520 ca         1 UUQ       0.030000
      3 C6          41.6810    -5.3650    12.3960 ca         1 UUQ      -0.051000
      4 C7          44.0580    -2.9260    10.8290 ca         1 UUQ      -0.077000
      5 C8          45.0950    -3.7500    10.4730 ca         1 UUQ      -0.109000
      6 C10         43.9300    -5.6670    11.3740 ca         1 UUQ      -0.106000
      7 N12         41.8510    -1.2260    11.6020 n          1 UUQ      -0.313600
      8 C15         38.4120    -4.3320    13.5720 ca         1 UUQ       0.077100
      9 C17         36.3830    -3.3920    12.7710 ca         1 UUQ      -0.106000
     10 C20         38.1500    -3.8800    14.8540 ca         1 UUQ      -0.101000
     11 C22         42.4150    -0.4160    12.5830 c          1 UUQ       0.621000
     12 C28         41.8610     1.4470    11.1510 cc         1 UUQ       0.001400
     13 C16         37.5470    -4.1140    12.5000 ca         1 UUQ      -0.074300
     14 C18         36.1000    -2.9200    14.0480 ca         1 UUQ      -0.103000
     15 C19         36.9810    -3.1670    15.0950 ca         1 UUQ      -0.107000
     16 C1          40.6370    -4.5270    12.7570 ca         1 UUQ       0.192100
     17 C2          40.7150    -3.1470    12.4910 ca         1 UUQ      -0.155000
     18 C11         41.5720    -6.7540    12.6690 cg         1 UUQ       0.341000
     19 N14         41.4930    -7.8850    12.8880 n1         1 UUQ      -0.456000
     20 C9          45.0280    -5.1310    10.7500 ca         1 UUQ      -0.085000
     21 C3          41.8190    -2.6410    11.8670 ca         1 UUQ       0.109600
     22 C25         41.2970    -0.7710    10.3870 c          1 UUQ       0.585200
     23 O26         40.8390    -1.5650     9.5830 o          1 UUQ      -0.485000
     24 C27         41.3260     0.6650    10.2010 cd         1 UUQ      -0.307200
     25 C29         41.9210     2.9540    11.0330 c3         1 UUQ       0.344200
     26 F31         41.3940     3.3860     9.8850 f          1 UUQ      -0.095333
     27 F32         41.2520     3.5420    12.0450 f          1 UUQ      -0.095333
     28 F30         43.1940     3.3890    11.0960 f          1 UUQ      -0.095333
     29 N23         42.3910     0.9300    12.2990 ns         1 UUQ      -0.511600
     30 O24         42.8940    -0.8560    13.6090 o          1 UUQ      -0.514000
     31 H1          44.1100    -1.8670    10.6170 ha         1 UUQ       0.113000
     32 H2          45.9670    -3.3430     9.9790 ha         1 UUQ       0.118000
     33 H3          43.8880    -6.7280    11.5820 ha         1 UUQ       0.128000
     34 H4          35.6880    -3.2050    11.9610 ha         1 UUQ       0.118000
     35 H5          38.8600    -4.0860    15.6440 ha         1 UUQ       0.134000
     36 H6          38.6650    -4.0550    10.6590 hc         1 UUQ       0.054700
     37 H7          38.1780    -5.6700    11.1540 hc         1 UUQ       0.054700
     38 H8          36.9800    -4.5490    10.4820 hc         1 UUQ       0.054700
     39 H9          35.1870    -2.3650    14.2260 ha         1 UUQ       0.118000
     40 H10         36.7650    -2.8070    16.0930 ha         1 UUQ       0.121000
     41 H11         39.9060    -2.4910    12.7750 ha         1 UUQ       0.142000
     42 H12         45.8520    -5.7740    10.4670 ha         1 UUQ       0.119000
     43 H13         40.9080     1.0690     9.2930 ha         1 UUQ       0.242000
     44 H14         42.7930     1.5300    13.0070 hn         1 UUQ       0.476000
     45 O13         39.5720    -5.0900    13.3730 os         1 UUQ      -0.242200
     46 C21         37.8570    -4.6270    11.1230 c3         1 UUQ      -0.054800
@<TRIPOS>BOND
     1     1     2 ar  
     2     1     4 ar  
     3     1    21 ar  
     4     2     3 ar  
     5     2     6 ar  
     6     3    16 ar  
     7     3    18 1   
     8     4     5 ar  
     9     4    31 1   
    10     5    20 ar  
    11     5    32 1   
    12     6    20 ar  
    13     6    33 1   
    14     7    11 1   
    15     7    21 1   
    16     7    22 1   
    17     8    10 ar  
    18     8    13 ar  
    19     8    45 1   
    20     9    13 ar  
    21     9    14 ar  
    22     9    34 1   
    23    10    15 ar  
    24    10    35 1   
    25    11    29 1   
    26    11    30 2   
    27    12    24 2   
    28    12    25 1   
    29    12    29 1   
    30    13    46 1   
    31    14    15 ar  
    32    14    39 1   
    33    15    40 1   
    34    16    17 ar  
    35    16    45 1   
    36    17    21 ar  
    37    17    41 1   
    38    18    19 3   
    39    20    42 1   
    40    22    23 2   
    41    22    24 1   
    42    24    43 1   
    43    25    26 1   
    44    25    27 1   
    45    25    28 1   
    46    29    44 1   
    47    36    46 1   
    48    37    46 1   
    49    38    46 1   
@<TRIPOS>SUBSTRUCTURE
     1 UUQ         1 TEMP              0 ****  ****    0 ROOT
