@<TRIPOS>MOLECULE
UUQ
   46    49     1     0     0
SMALL
No Charge or Current Charge


@<TRIPOS>ATOM
      1 C4          42.8730    -3.4500    11.4760 ca         1 UUQ      -0.052000
      2 C5          42.8060    -4.8390    11.7660 ca         1 UUQ       0.030000
      3 C6          41.7090    -5.3470    12.5140 ca         1 UUQ      -0.051000
      4 C7          43.9580    -2.9450    10.7200 ca         1 UUQ      -0.077000
      5 C8          44.9690    -3.8010    10.2600 ca         1 UUQ      -0.109000
      6 C10         43.8390    -5.6880    11.2920 ca         1 UUQ      -0.106000
      7 N12         41.8790    -1.1770    11.6750 n          1 UUQ      -0.313600
      8 C15         38.3950    -4.3540    13.6950 ca         1 UUQ       0.077100
      9 C17         36.3670    -3.5820    12.5930 ca         1 UUQ      -0.106000
     10 C20         37.9190    -3.8510    14.9180 ca         1 UUQ      -0.101000
     11 C22         42.6420    -0.3480    12.5070 c          1 UUQ       0.621000
     12 C28         41.9510     1.5960    11.1800 cc         1 UUQ       0.001400
     13 C16         37.6150    -4.2330    12.5200 ca         1 UUQ      -0.074300
     14 C18         35.8990    -3.0700    13.8160 ca         1 UUQ      -0.103000
     15 C19         36.6730    -3.2070    14.9790 ca         1 UUQ      -0.107000
     16 C1          40.6970    -4.4710    12.9580 ca         1 UUQ       0.192100
     17 C2          40.7800    -3.0980    12.6780 ca         1 UUQ      -0.155000
     18 C11         41.5900    -6.7480    12.8260 cg         1 UUQ       0.341000
     19 N14         41.5040    -7.8870    13.0710 n1         1 UUQ      -0.456000
     20 C9          44.9100    -5.1700    10.5470 ca         1 UUQ      -0.085000
     21 C3          41.8550    -2.5840    11.9410 ca         1 UUQ       0.109600
     22 C25         41.1300    -0.6850    10.5950 c          1 UUQ       0.585200
     23 O26         40.4600    -1.4100     9.8730 o          1 UUQ      -0.485000
     24 C27         41.2030     0.7680    10.3800 cd         1 UUQ      -0.307200
     25 C29         42.1020     3.1080    11.0540 c3         1 UUQ       0.344200
     26 F31         41.3960     3.6070    10.0140 f          1 UUQ      -0.095333
     27 F32         41.6720     3.7440    12.1680 f          1 UUQ      -0.095333
     28 F30         43.3940     3.4630    10.8640 f          1 UUQ      -0.095333
     29 N23         42.6390     0.9860    12.2160 ns         1 UUQ      -0.511600
     30 O24         43.2870    -0.7680    13.4520 o          1 UUQ      -0.514000
     31 H1          44.0290    -1.8870    10.4790 ha         1 UUQ       0.113000
     32 H2          45.7980    -3.4010     9.6810 ha         1 UUQ       0.118000
     33 H3          43.8320    -6.7560    11.4900 ha         1 UUQ       0.128000
     34 H4          35.7540    -3.4740    11.7000 ha         1 UUQ       0.118000
     35 H5          38.5220    -3.9550    15.8170 ha         1 UUQ       0.134000
     36 H6          38.8060    -4.1200    10.7030 hc         1 UUQ       0.054700
     37 H7          38.5720    -5.7720    11.3070 hc         1 UUQ       0.054700
     38 H8          37.2530    -4.9370    10.4860 hc         1 UUQ       0.054700
     39 H9          34.9330    -2.5700    13.8610 ha         1 UUQ       0.118000
     40 H10         36.3080    -2.8130    15.9260 ha         1 UUQ       0.121000
     41 H11         40.0090    -2.4190    13.0300 ha         1 UUQ       0.142000
     42 H12         45.6950    -5.8340    10.1910 ha         1 UUQ       0.119000
     43 H13         40.6210     1.1310     9.5410 ha         1 UUQ       0.242000
     44 H14         43.2090     1.5420    12.8480 hn         1 UUQ       0.476000
     45 O13         39.6260    -4.9700    13.6750 os         1 UUQ      -0.242200
     46 C21         38.0880    -4.7960    11.1820 c3         1 UUQ      -0.054800
@<TRIPOS>BOND
     1     1     2 ar  
     2     1     4 ar  
     3     1    21 ar  
     4     2     3 ar  
     5     2     6 ar  
     6     3    16 ar  
     7     3    18 1   
     8     4     5 ar  
     9     4    31 1   
    10     5    20 ar  
    11     5    32 1   
    12     6    20 ar  
    13     6    33 1   
    14     7    11 1   
    15     7    21 1   
    16     7    22 1   
    17     8    10 ar  
    18     8    13 ar  
    19     8    45 1   
    20     9    13 ar  
    21     9    14 ar  
    22     9    34 1   
    23    10    15 ar  
    24    10    35 1   
    25    11    29 1   
    26    11    30 2   
    27    12    24 2   
    28    12    25 1   
    29    12    29 1   
    30    13    46 1   
    31    14    15 ar  
    32    14    39 1   
    33    15    40 1   
    34    16    17 ar  
    35    16    45 1   
    36    17    21 ar  
    37    17    41 1   
    38    18    19 3   
    39    20    42 1   
    40    22    23 2   
    41    22    24 1   
    42    24    43 1   
    43    25    26 1   
    44    25    27 1   
    45    25    28 1   
    46    29    44 1   
    47    36    46 1   
    48    37    46 1   
    49    38    46 1   
@<TRIPOS>SUBSTRUCTURE
     1 UUQ         1 TEMP              0 ****  ****    0 ROOT
