@<TRIPOS>MOLECULE
UUS
   19    19     1     0     0
SMALL
No Charge or Current Charge


@<TRIPOS>ATOM
      1 C4         -21.6080    13.3460    27.8810 cc         1 UUS      -0.298000
      2 C5         -22.4520    12.4620    27.1430 cc         1 UUS       0.063700
      3 C6         -21.9420    11.9060    25.9950 cd         1 UUS      -0.301200
      4 N          -19.8110    13.0550    26.2890 n          1 UUS      -0.261000
      5 C          -20.5830    12.1730    25.4970 c          1 UUS       0.550200
      6 O          -20.1660    11.6620    24.4660 o          1 UUS      -0.561000
      7 C1         -18.4150    13.3590    25.8770 c3         1 UUS       0.084000
      8 C2         -18.2690    14.6630    25.0560 c3         1 UUS       0.140600
      9 C3         -20.3280    13.6240    27.4520 cd         1 UUS      -0.005400
     10 O1         -18.5710    15.8160    25.8600 oh         1 UUS      -0.669000
     11 Br         -24.2040    12.0760    27.7210 br         1 UUS      -0.068700
     12 H1         -21.9950    13.8000    28.7910 ha         1 UUS       0.215000
     13 H2         -22.5240    11.2290    25.3830 ha         1 UUS       0.222000
     14 H3         -18.0130    12.5260    25.2870 h1         1 UUS       0.073700
     15 H4         -17.7870    13.4330    26.7740 h1         1 UUS       0.073700
     16 H5         -18.9360    14.6130    24.1850 h1         1 UUS       0.039700
     17 H6         -17.2380    14.7250    24.6810 h1         1 UUS       0.039700
     18 H7         -19.6400    14.2940    27.9650 h4         1 UUS       0.210000
     19 H8         -18.4770    16.6050    25.2800 ho         1 UUS       0.452000
@<TRIPOS>BOND
     1     1     2 1   
     2     1     9 2   
     3     1    12 1   
     4     2     3 2   
     5     2    11 1   
     6     3     5 1   
     7     3    13 1   
     8     4     5 1   
     9     4     7 1   
    10     4     9 1   
    11     5     6 2   
    12     7     8 1   
    13     7    14 1   
    14     7    15 1   
    15     8    10 1   
    16     8    16 1   
    17     8    17 1   
    18     9    18 1   
    19    10    19 1   
@<TRIPOS>SUBSTRUCTURE
     1 UUS         1 TEMP              0 ****  ****    0 ROOT
