@<TRIPOS>MOLECULE
UUS
   19    19     1     0     0
SMALL
bcc


@<TRIPOS>ATOM
      1 C4         -21.5300    13.3400    27.9140 cc         1 UUS      -0.248000
      2 C5         -22.3550    12.5510    27.0850 cc         1 UUS       0.063700
      3 C6         -21.9010    12.0310    25.9160 cd         1 UUS      -0.251200
      4 N          -19.7750    13.0430    26.3360 n          1 UUS      -0.328000
      5 C          -20.5530    12.2770    25.4730 c          1 UUS       0.692700
      6 O          -20.0910    11.8550    24.4180 o          1 UUS      -0.636500
      7 C1         -18.4030    13.3560    25.9440 c3         1 UUS       0.084000
      8 C2         -18.3280    14.5780    25.0530 c3         1 UUS       0.117400
      9 C3         -20.2580    13.5540    27.4900 cd         1 UUS       0.044600
     10 O1         -18.8180    15.6830    25.7740 oh         1 UUS      -0.606800
     11 BR         -24.1250    12.2240    27.6340 br         1 UUS      -0.068700
     12 H1         -21.8680    13.7600    28.8480 ha         1 UUS       0.165000
     13 H2         -22.5230    11.4250    25.2720 ha         1 UUS       0.172000
     14 H3         -17.9760    12.4990    25.4270 h1         1 UUS       0.073700
     15 H4         -17.8230    13.5130    26.8530 h1         1 UUS       0.073700
     16 H5         -18.9010    14.3990    24.1360 h1         1 UUS       0.039700
     17 H6         -17.2800    14.7080    24.7570 h1         1 UUS       0.039700
     18 H7         -19.5660    14.1390    28.0770 h4         1 UUS       0.160000
     19 H8         -18.8840    16.4320    25.1750 ho         1 UUS       0.413000
@<TRIPOS>BOND
     1     1     2 1   
     2     1     9 2   
     3     1    12 1   
     4     2     3 2   
     5     2    11 1   
     6     3     5 1   
     7     3    13 1   
     8     4     5 1   
     9     4     7 1   
    10     4     9 1   
    11     5     6 2   
    12     7     8 1   
    13     7    14 1   
    14     7    15 1   
    15     8    10 1   
    16     8    16 1   
    17     8    17 1   
    18     9    18 1   
    19    10    19 1   
@<TRIPOS>SUBSTRUCTURE
     1 UUS         1 TEMP              0 ****  ****    0 ROOT
