@<TRIPOS>MOLECULE
UUT
   33    32     1     0     0
SMALL
abcg2


@<TRIPOS>ATOM
      1 O3          -3.5850    37.4610    58.7370 oh         1 UUT      -0.708000
      2 C7          -3.2850    36.6510    57.6180 c3         1 UUT       0.170300
      3 C8          -2.3130    35.5350    57.9730 c3         1 UUT      -0.132100
      4 C6          -4.5870    36.0650    57.1090 c3         1 UUT       0.169600
      5 O2          -5.4260    37.0960    56.6570 os         1 UUT      -0.435000
      6 C4          -6.6010    36.6620    56.0080 c3         1 UUT       0.174300
      7 C5          -7.6620    36.1780    56.9880 c3         1 UUT      -0.124100
      8 C3          -7.1330    37.8290    55.1990 c3         1 UUT       0.163600
      9 O1          -6.1860    38.2110    54.2340 os         1 UUT      -0.452000
     10 C1          -6.6370    39.1960    53.3240 c3         1 UUT       0.172300
     11 C2          -5.4380    40.0190    52.8920 c3         1 UUT      -0.086100
     12 C           -7.3290    38.5130    52.1480 c3         1 UUT       0.131600
     13 O           -7.8630    39.5080    51.3040 oh         1 UUT      -0.722000
     14 H1          -2.7630    37.8470    59.0550 ho         1 UUT       0.498000
     15 H2          -2.8450    37.2540    56.8110 h1         1 UUT       0.043700
     16 H3          -1.3780    35.9430    58.3610 hc         1 UUT       0.041700
     17 H4          -2.7340    34.8730    58.7320 hc         1 UUT       0.041700
     18 H5          -2.0680    34.9350    57.0960 hc         1 UUT       0.041700
     19 H6          -5.0540    35.4780    57.9140 h1         1 UUT       0.025200
     20 H7          -4.3600    35.3630    56.2950 h1         1 UUT       0.025200
     21 H8          -6.3620    35.8420    55.3120 h1         1 UUT       0.036700
     22 H9          -7.3030    35.3420    57.5890 hc         1 UUT       0.043033
     23 H10         -7.9650    36.9780    57.6660 hc         1 UUT       0.043033
     24 H11         -8.5470    35.8330    56.4530 hc         1 UUT       0.043033
     25 H12         -7.3650    38.6690    55.8710 h1         1 UUT       0.029700
     26 H13         -8.0810    37.5200    54.7400 h1         1 UUT       0.029700
     27 H14         -7.3630    39.8590    53.8190 h1         1 UUT       0.045700
     28 H15         -4.9760    40.5090    53.7500 hc         1 UUT       0.045700
     29 H16         -4.6860    39.3910    52.4100 hc         1 UUT       0.045700
     30 H17         -5.7320    40.7940    52.1860 hc         1 UUT       0.045700
     31 H18         -8.1160    37.8460    52.5220 h1         1 UUT       0.023700
     32 H19         -6.5940    37.8840    51.6270 h1         1 UUT       0.023700
     33 H20         -8.2710    39.0750    50.5490 ho         1 UUT       0.504000
@<TRIPOS>BOND
     1     1     2 1   
     2     1    14 1   
     3     2     3 1   
     4     2     4 1   
     5     2    15 1   
     6     3    16 1   
     7     3    17 1   
     8     3    18 1   
     9     4     5 1   
    10     4    19 1   
    11     4    20 1   
    12     5     6 1   
    13     6     7 1   
    14     6     8 1   
    15     6    21 1   
    16     7    22 1   
    17     7    23 1   
    18     7    24 1   
    19     8     9 1   
    20     8    25 1   
    21     8    26 1   
    22     9    10 1   
    23    10    11 1   
    24    10    12 1   
    25    10    27 1   
    26    11    28 1   
    27    11    29 1   
    28    11    30 1   
    29    12    13 1   
    30    12    31 1   
    31    12    32 1   
    32    13    33 1   
@<TRIPOS>SUBSTRUCTURE
     1 UUT         1 TEMP              0 ****  ****    0 ROOT
