@<TRIPOS>MOLECULE
UUT
   33    32     1     0     0
SMALL
No Charge or Current Charge


@<TRIPOS>ATOM
      1 O3          -3.7900    37.5050    59.0240 oh         1 UUT      -0.708000
      2 C7          -3.3320    36.7330    57.8980 c3         1 UUT       0.170300
      3 C8          -2.2600    35.7430    58.3950 c3         1 UUT      -0.132100
      4 C6          -4.5180    36.0070    57.1980 c3         1 UUT       0.169600
      5 O2          -5.3800    36.9920    56.5850 os         1 UUT      -0.435000
      6 C4          -6.4810    36.4790    55.7970 c3         1 UUT       0.174300
      7 C5          -7.5140    35.8240    56.7450 c3         1 UUT      -0.124100
      8 C3          -7.0930    37.6640    55.0030 c3         1 UUT       0.163600
      9 O1          -6.1610    38.0680    53.9730 os         1 UUT      -0.452000
     10 C1          -6.5080    39.2550    53.2240 c3         1 UUT       0.172300
     11 C2          -5.2520    39.6290    52.4100 c3         1 UUT      -0.086100
     12 C           -7.7590    38.9760    52.3310 c3         1 UUT       0.131600
     13 O           -8.1100    40.1270    51.5410 oh         1 UUT      -0.722000
     14 H1          -3.0370    38.0690    59.3110 ho         1 UUT       0.498000
     15 H2          -2.8620    37.3950    57.1570 h1         1 UUT       0.043700
     16 H3          -1.4180    36.2770    58.8540 hc         1 UUT       0.041700
     17 H4          -2.6780    35.0520    59.1360 hc         1 UUT       0.041700
     18 H5          -1.8680    35.1520    57.5580 hc         1 UUT       0.041700
     19 H6          -5.0590    35.4060    57.9400 h1         1 UUT       0.025200
     20 H7          -4.1190    35.3270    56.4340 h1         1 UUT       0.025200
     21 H8          -6.1300    35.7250    55.0790 h1         1 UUT       0.036700
     22 H9          -7.1220    34.9010    57.1860 hc         1 UUT       0.043033
     23 H10         -7.7930    36.5100    57.5540 hc         1 UUT       0.043033
     24 H11         -8.4240    35.5610    56.1930 hc         1 UUT       0.043033
     25 H12         -7.3060    38.4940    55.6890 h1         1 UUT       0.029700
     26 H13         -8.0400    37.3350    54.5580 h1         1 UUT       0.029700
     27 H14         -6.7360    40.0820    53.9100 h1         1 UUT       0.045700
     28 H15         -4.3910    39.7680    53.0750 hc         1 UUT       0.045700
     29 H16         -5.0080    38.8420    51.6860 hc         1 UUT       0.045700
     30 H17         -5.4080    40.5650    51.8620 hc         1 UUT       0.045700
     31 H18         -8.6100    38.7030    52.9700 h1         1 UUT       0.023700
     32 H19         -7.5460    38.1190    51.6770 h1         1 UUT       0.023700
     33 H20         -8.8940    39.8770    50.9970 ho         1 UUT       0.504000
@<TRIPOS>BOND
     1     1     2 1   
     2     1    14 1   
     3     2     3 1   
     4     2     4 1   
     5     2    15 1   
     6     3    16 1   
     7     3    17 1   
     8     3    18 1   
     9     4     5 1   
    10     4    19 1   
    11     4    20 1   
    12     5     6 1   
    13     6     7 1   
    14     6     8 1   
    15     6    21 1   
    16     7    22 1   
    17     7    23 1   
    18     7    24 1   
    19     8     9 1   
    20     8    25 1   
    21     8    26 1   
    22     9    10 1   
    23    10    11 1   
    24    10    12 1   
    25    10    27 1   
    26    11    28 1   
    27    11    29 1   
    28    11    30 1   
    29    12    13 1   
    30    12    31 1   
    31    12    32 1   
    32    13    33 1   
@<TRIPOS>SUBSTRUCTURE
     1 UUT         1 TEMP              0 ****  ****    0 ROOT
