@<TRIPOS>MOLECULE
UUU
   28    28     1     0     0
SMALL
bcc


@<TRIPOS>ATOM
      1 C1           0.4800     1.0710    -0.1300 c6         1 UUU       0.144100
      2 C2           1.1210    -0.2970    -0.3480 c6         1 UUU      -0.058700
      3 C3           0.4220    -1.4450     0.3970 c6         1 UUU       0.176500
      4 C4          -1.0790    -1.4540     0.1030 c6         1 UUU       0.160100
      5 C5          -1.7020    -0.0930     0.3960 c6         1 UUU       0.121100
      6 C6          -1.0210     0.9980    -0.4170 c6         1 UUU       0.069100
      7 C8           2.6240    -0.3020    -0.1030 c3         1 UUU       0.144400
      8 O8           3.2390     0.5660    -1.0310 oh         1 UUU      -0.601800
      9 O1           0.7380     1.5310     1.1760 oh         1 UUU      -0.584800
     10 O6          -1.6620     2.2200    -0.0940 oh         1 UUU      -0.614800
     11 O5          -3.0790    -0.1840     0.0860 oh         1 UUU      -0.616800
     12 N1           0.5890    -1.3910     1.8430 n8         1 UUU      -0.888800
     13 H1           0.9150     1.7660    -0.8640 h1         1 UUU       0.040700
     14 H2           0.9880    -0.5220    -1.4120 hc         1 UUU       0.078700
     15 H3           0.8350    -2.3750    -0.0240 h1         1 UUU       0.035700
     16 H4          -1.5480    -2.1930     0.7730 h1         1 UUU       0.051700
     17 H6          -1.5570     0.1170     1.4630 h1         1 UUU       0.084700
     18 H7          -1.1470     0.7730    -1.4840 h1         1 UUU       0.052700
     19 H8           2.8550     0.0030     0.9230 h1         1 UUU       0.023700
     20 H9           2.9900    -1.3320    -0.2210 h1         1 UUU       0.023700
     21 H10          4.1700     0.6360    -0.8030 ho         1 UUU       0.406000
     22 H11          0.2090     2.3260     1.3050 ho         1 UUU       0.412000
     23 H12         -1.5060     2.8500    -0.8050 ho         1 UUU       0.411000
     24 H13         -3.4400     0.7090     0.0870 ho         1 UUU       0.424000
     25 H14          0.4260    -2.3140     2.2250 hn         1 UUU       0.345300
     26 H15          1.5380    -1.1540     2.0920 hn         1 UUU       0.345300
     27 O2          -1.2650    -1.8320    -1.2430 oh         1 UUU      -0.612800
     28 H5          -2.1960    -1.7100    -1.4590 ho         1 UUU       0.425000
@<TRIPOS>BOND
     1     1     2 1   
     2     1     6 1   
     3     1     9 1   
     4     1    13 1   
     5     2     3 1   
     6     2     7 1   
     7     2    14 1   
     8     3     4 1   
     9     3    12 1   
    10     3    15 1   
    11     4     5 1   
    12     4    16 1   
    13     4    27 1   
    14     5     6 1   
    15     5    11 1   
    16     5    17 1   
    17     6    10 1   
    18     6    18 1   
    19     7     8 1   
    20     7    19 1   
    21     7    20 1   
    22     8    21 1   
    23     9    22 1   
    24    10    23 1   
    25    11    24 1   
    26    12    25 1   
    27    12    26 1   
    28    27    28 1   
@<TRIPOS>SUBSTRUCTURE
     1 UUU         1 TEMP              0 ****  ****    0 ROOT
