@<TRIPOS>MOLECULE
UUU
   28    28     1     0     0
SMALL
No Charge or Current Charge


@<TRIPOS>ATOM
      1 C1           0.5060     1.0150    -0.0450 c6         1 UUU       0.167300
      2 C2           1.1290    -0.3860    -0.3530 c6         1 UUU      -0.058700
      3 C3           0.3810    -1.5380     0.3950 c6         1 UUU       0.176500
      4 C4          -1.1570    -1.5170     0.0710 c6         1 UUU       0.183300
      5 C5          -1.7800    -0.1140     0.3610 c6         1 UUU       0.144300
      6 C6          -1.0170     1.0290    -0.3830 c6         1 UUU       0.092300
      7 C8           2.6710    -0.4290    -0.1400 c3         1 UUU       0.167600
      8 O8           3.3640     0.4260    -1.0610 oh         1 UUU      -0.664000
      9 O1           0.6860     1.4040     1.3280 oh         1 UUU      -0.707000
     10 O6          -1.6000     2.3090    -0.0410 oh         1 UUU      -0.737000
     11 O5          -3.1680    -0.0840    -0.0350 oh         1 UUU      -0.739000
     12 N1           0.6290    -1.4760     1.8590 n8         1 UUU      -0.999200
     13 H1           0.9970     1.7530    -0.6960 h1         1 UUU       0.040700
     14 H2           0.9950    -0.5710    -1.4280 hc         1 UUU       0.078700
     15 H3           0.7780    -2.5080     0.0550 h1         1 UUU       0.035700
     16 H4          -1.6480    -2.2430     0.7360 h1         1 UUU       0.051700
     17 H6          -1.6980     0.0690     1.4440 h1         1 UUU       0.084700
     18 H7          -1.1180     0.8560    -1.4650 h1         1 UUU       0.052700
     19 H8           2.9050    -0.1410     0.8930 h1         1 UUU       0.023700
     20 H9           3.0100    -1.4650    -0.2780 h1         1 UUU       0.023700
     21 H10          4.3220     0.3570    -0.8500 ho         1 UUU       0.445000
     22 H11          0.0130     2.1140     1.4650 ho         1 UUU       0.511000
     23 H12         -1.3710     2.9420    -0.7640 ho         1 UUU       0.510000
     24 H13         -3.3980     0.8780    -0.0340 ho         1 UUU       0.523000
     25 H14          1.5770    -1.8170     2.0500 hn         1 UUU       0.400500
     26 H15          0.6920    -0.4720     2.0930 hn         1 UUU       0.400500
     27 O2          -1.4250    -1.8840    -1.2960 oh         1 UUU      -0.735000
     28 H5          -2.3390    -1.5380    -1.4490 ho         1 UUU       0.524000
@<TRIPOS>BOND
     1     1     2 1   
     2     1     6 1   
     3     1     9 1   
     4     1    13 1   
     5     2     3 1   
     6     2     7 1   
     7     2    14 1   
     8     3     4 1   
     9     3    12 1   
    10     3    15 1   
    11     4     5 1   
    12     4    16 1   
    13     4    27 1   
    14     5     6 1   
    15     5    11 1   
    16     5    17 1   
    17     6    10 1   
    18     6    18 1   
    19     7     8 1   
    20     7    19 1   
    21     7    20 1   
    22     8    21 1   
    23     9    22 1   
    24    10    23 1   
    25    11    24 1   
    26    12    25 1   
    27    12    26 1   
    28    27    28 1   
@<TRIPOS>SUBSTRUCTURE
     1 UUU         1 TEMP              0 ****  ****    0 ROOT
