@<TRIPOS>MOLECULE
UUV
   19    19     1     0     0
SMALL
bcc


@<TRIPOS>ATOM
      1 N1         -20.1470    11.6370    25.7530 nc         1 UUV      -0.499800
      2 C4         -18.2010    15.4610    24.5550 c3         1 UUV       0.120700
      3 C5         -21.4250    11.3870    25.5490 cd         1 UUV       0.332200
      4 N          -20.1000    12.4870    26.7730 na         1 UUV       0.120400
      5 C          -22.2110    12.1050    26.4620 cd         1 UUV      -0.222200
      6 O          -18.4210    14.2370    25.2100 os         1 UUV      -0.387600
      7 C1         -21.3190    12.8080    27.2370 cc         1 UUV      -0.112300
      8 C2         -18.8360    13.0340    27.2190 c3         1 UUV       0.052300
      9 C3         -18.5300    14.3810    26.5980 c3         1 UUV       0.116400
     10 BR         -24.0650    12.1000    26.6130 br         1 UUV      -0.057100
     11 H1         -18.1310    15.2610    23.4870 h1         1 UUV       0.031700
     12 H2         -19.0220    16.1690    24.7220 h1         1 UUV       0.031700
     13 H3         -17.2710    15.9420    24.8790 h1         1 UUV       0.031700
     14 H4         -21.7460    10.7090    24.7730 h4         1 UUV       0.049100
     15 H5         -21.4680    13.4830    28.0640 h4         1 UUV       0.180000
     16 H6         -18.0610    12.3060    26.9800 h1         1 UUV       0.076700
     17 H7         -18.8670    13.1420    28.3030 h1         1 UUV       0.076700
     18 H8         -17.5970    14.7560    27.0420 h1         1 UUV       0.030200
     19 H9         -19.3190    15.0990    26.8630 h1         1 UUV       0.030200
@<TRIPOS>BOND
     1     1     3 2   
     2     1     4 1   
     3     2     6 1   
     4     2    11 1   
     5     2    12 1   
     6     2    13 1   
     7     3     5 1   
     8     3    14 1   
     9     4     7 1   
    10     4     8 1   
    11     5     7 2   
    12     5    10 1   
    13     6     9 1   
    14     7    15 1   
    15     8     9 1   
    16     8    16 1   
    17     8    17 1   
    18     9    18 1   
    19     9    19 1   
@<TRIPOS>SUBSTRUCTURE
     1 UUV         1 TEMP              0 ****  ****    0 ROOT
