@<TRIPOS>MOLECULE
UUV
   19    19     1     0     0
SMALL
No Charge or Current Charge


@<TRIPOS>ATOM
      1 N1         -20.1960    11.2070    26.0060 nc         1 UUV      -0.499800
      2 C4         -18.2230    15.6760    24.6300 c3         1 UUV       0.143900
      3 C5         -21.4980    11.0730    25.8330 cd         1 UUV       0.266900
      4 N          -20.0990    12.4010    26.6980 na         1 UUV       0.141800
      5 C          -22.2310    12.1370    26.4000 cd         1 UUV      -0.156900
      6 O          -18.4690    14.3800    25.2010 os         1 UUV      -0.434000
      7 C1         -21.3330    12.9940    26.9640 cc         1 UUV      -0.145000
      8 C2         -18.7790    12.9140    27.1080 c3         1 UUV       0.081600
      9 C3         -18.4910    14.3560    26.6400 c3         1 UUV       0.139600
     10 Br         -24.1070    12.3260    26.3800 br         1 UUV      -0.057100
     11 H1         -18.2200    15.6150    23.5340 h1         1 UUV       0.031700
     12 H2         -19.0010    16.3890    24.9310 h1         1 UUV       0.031700
     13 H3         -17.2490    16.0660    24.9530 h1         1 UUV       0.031700
     14 H4         -21.8790    10.2080    25.3040 h4         1 UUV       0.049100
     15 H5         -21.4530    13.9260    27.5030 h4         1 UUV       0.162000
     16 H6         -17.9980    12.2490    26.7180 h1         1 UUV       0.076700
     17 H7         -18.7280    12.8800    28.2030 h1         1 UUV       0.076700
     18 H8         -17.5210    14.6760    27.0440 h1         1 UUV       0.030200
     19 H9         -19.2630    15.0310    27.0310 h1         1 UUV       0.030200
@<TRIPOS>BOND
     1     1     3 2   
     2     1     4 1   
     3     2     6 1   
     4     2    11 1   
     5     2    12 1   
     6     2    13 1   
     7     3     5 1   
     8     3    14 1   
     9     4     7 1   
    10     4     8 1   
    11     5     7 2   
    12     5    10 1   
    13     6     9 1   
    14     7    15 1   
    15     8     9 1   
    16     8    16 1   
    17     8    17 1   
    18     9    18 1   
    19     9    19 1   
@<TRIPOS>SUBSTRUCTURE
     1 UUV         1 TEMP              0 ****  ****    0 ROOT
