@<TRIPOS>MOLECULE
UUX
   58    61     1     0     0
SMALL
abcg2


@<TRIPOS>ATOM
      1 C02         16.0150    -6.0040   -20.1890 cc         1 UUX       0.414800
      2 N03         15.8190    -6.6600   -19.0560 nd         1 UUX      -0.409000
      3 C07         16.6350    -3.7500   -21.2050 c6         1 UUX       0.208500
      4 C10         13.4890    -3.3580   -21.1160 ca         1 UUX      -0.083300
      5 C11         17.9270    -3.3890   -20.4260 c3         1 UUX      -0.047000
      6 C13         18.8220    -4.5960   -20.1120 c3         1 UUX      -0.088767
      7 C15         14.5850    -4.8960   -22.8100 c2         1 UUX      -0.187400
      8 C16         15.8270    -4.7360   -23.2990 c2         1 UUX       0.073800
      9 C17         16.2250    -4.8890   -24.7460 c3         1 UUX       0.002100
     10 C18         13.3890    -5.3120   -23.6180 c3         1 UUX      -0.037900
     11 C19         13.5840    -2.2540   -21.9610 ca         1 UUX      -0.105500
     12 C20         12.8790    -1.0850   -21.6870 ca         1 UUX      -0.110500
     13 C21         12.0670    -1.0050   -20.5610 ca         1 UUX      -0.108000
     14 C22         11.9600    -2.1040   -19.7130 ca         1 UUX      -0.110500
     15 C23         12.6650    -3.2690   -19.9920 ca         1 UUX      -0.105500
     16 C24         16.4490    -3.5320   -25.3810 ca         1 UUX      -0.092300
     17 C25         15.3630    -2.6920   -25.6410 ca         1 UUX      -0.108000
     18 C26         15.5560    -1.4260   -26.1780 ca         1 UUX      -0.107500
     19 C27         16.8440    -0.9740   -26.4590 ca         1 UUX      -0.107000
     20 C28         17.9320    -1.8000   -26.2020 ca         1 UUX      -0.107500
     21 N01         16.6210    -6.8500   -21.0340 na         1 UUX      -0.201700
     22 N04         16.3330    -7.9010   -19.2380 nd         1 UUX      -0.053000
     23 N05         16.8250    -8.0240   -20.4240 nc         1 UUX      -0.209800
     24 N06         16.9160    -4.3970   -22.4810 nu         1 UUX      -0.816200
     25 C08         15.5840    -4.6120   -20.4830 c6         1 UUX      -0.090000
     26 C09         14.2870    -4.6310   -21.3530 c6         1 UUX       0.032800
     27 C12         17.5300    -2.6950   -19.1160 c3         1 UUX      -0.088767
     28 C14         18.7300    -2.3890   -21.2760 c3         1 UUX      -0.088767
     29 C29         17.7330    -3.0720   -25.6690 ca         1 UUX      -0.108000
     30 H9          16.1330    -2.7920   -21.3840 h1         1 UUX       0.048700
     31 H35         19.0720    -5.1520   -21.0150 hc         1 UUX       0.039478
     32 H36         19.7530    -4.2460   -19.6610 hc         1 UUX       0.039478
     33 H34         18.3540    -5.2780   -19.4030 hc         1 UUX       0.039478
     34 H40         17.1490    -5.4710   -24.8000 hc         1 UUX       0.064700
     35 H41         15.4650    -5.4360   -25.2970 hc         1 UUX       0.064700
     36 H44         12.6260    -4.5270   -23.6160 hc         1 UUX       0.041033
     37 H42         13.6250    -5.5360   -24.6550 hc         1 UUX       0.041033
     38 H43         12.9220    -6.2010   -23.1790 hc         1 UUX       0.041033
     39 H45         14.2070    -2.3120   -22.8440 ha         1 UUX       0.117500
     40 H46         12.9640    -0.2380   -22.3570 ha         1 UUX       0.114000
     41 H47         11.5180    -0.0960   -20.3470 ha         1 UUX       0.114000
     42 H48         11.3260    -2.0540   -18.8360 ha         1 UUX       0.114000
     43 H49         12.5790    -4.1230   -19.3290 ha         1 UUX       0.117500
     44 H50         14.3600    -3.0340   -25.4150 ha         1 UUX       0.113500
     45 H51         14.7030    -0.7890   -26.3760 ha         1 UUX       0.115000
     46 H52         16.9960     0.0150   -26.8730 ha         1 UUX       0.116000
     47 H53         18.9370    -1.4580   -26.4160 ha         1 UUX       0.115000
     48 H17         16.9810    -6.6460   -21.9570 hn         1 UUX       0.401000
     49 H29         17.6680    -3.9620   -22.9940 hn         1 UUX       0.461000
     50 H57         15.3370    -4.1610   -19.5260 hc         1 UUX       0.097700
     51 H61         13.6710    -5.4550   -20.9790 hc         1 UUX       0.073700
     52 H33         16.8600    -1.8530   -19.3040 hc         1 UUX       0.039478
     53 H31         17.0330    -3.3810   -18.4280 hc         1 UUX       0.039478
     54 H32         18.4220    -2.3130   -18.6160 hc         1 UUX       0.039478
     55 H38         19.1370    -2.8460   -22.1800 hc         1 UUX       0.039478
     56 H37         18.1120    -1.5380   -21.5710 hc         1 UUX       0.039478
     57 H39         19.5770    -2.0120   -20.6990 hc         1 UUX       0.039478
     58 H54         18.5840    -3.7130   -25.4720 ha         1 UUX       0.113500
@<TRIPOS>BOND
     1     1     2 2   
     2     1    21 1   
     3     1    25 1   
     4     2    22 1   
     5     3     5 1   
     6     3    24 1   
     7     3    25 1   
     8     3    30 1   
     9     4    11 ar  
    10     4    15 ar  
    11     4    26 1   
    12     5     6 1   
    13     5    27 1   
    14     5    28 1   
    15     6    31 1   
    16     6    32 1   
    17     6    33 1   
    18     7     8 2   
    19     7    10 1   
    20     7    26 1   
    21     8     9 1   
    22     8    24 1   
    23     9    16 1   
    24     9    34 1   
    25     9    35 1   
    26    10    36 1   
    27    10    37 1   
    28    10    38 1   
    29    11    12 ar  
    30    11    39 1   
    31    12    13 ar  
    32    12    40 1   
    33    13    14 ar  
    34    13    41 1   
    35    14    15 ar  
    36    14    42 1   
    37    15    43 1   
    38    16    17 ar  
    39    16    29 ar  
    40    17    18 ar  
    41    17    44 1   
    42    18    19 ar  
    43    18    45 1   
    44    19    20 ar  
    45    19    46 1   
    46    20    29 ar  
    47    20    47 1   
    48    21    23 1   
    49    21    48 1   
    50    22    23 2   
    51    24    49 1   
    52    25    26 1   
    53    25    50 1   
    54    26    51 1   
    55    27    52 1   
    56    27    53 1   
    57    27    54 1   
    58    28    55 1   
    59    28    56 1   
    60    28    57 1   
    61    29    58 1   
@<TRIPOS>SUBSTRUCTURE
     1 UUX         1 TEMP              0 ****  ****    0 ROOT
