@<TRIPOS>MOLECULE
UUX
   58    61     1     0     0
SMALL
No Charge or Current Charge


@<TRIPOS>ATOM
      1 C02          0.0000     0.0000     0.0000 cc         1 UUX       0.414800
      2 N03          0.0000     0.0000     0.0000 nd         1 UUX      -0.409000
      3 C07          0.0000     0.0000     0.0000 c6         1 UUX       0.208500
      4 C10          0.0000     0.0000     0.0000 ca         1 UUX      -0.083300
      5 C11          0.0000     0.0000     0.0000 c3         1 UUX      -0.047000
      6 C13          0.0000     0.0000     0.0000 c3         1 UUX      -0.088767
      7 C15          0.0000     0.0000     0.0000 c2         1 UUX      -0.187400
      8 C16          0.0000     0.0000     0.0000 c2         1 UUX       0.073800
      9 C17          0.0000     0.0000     0.0000 c3         1 UUX       0.002100
     10 C18          0.0000     0.0000     0.0000 c3         1 UUX      -0.037900
     11 C19          0.0000     0.0000     0.0000 ca         1 UUX      -0.105500
     12 C20          0.0000     0.0000     0.0000 ca         1 UUX      -0.110500
     13 C21          0.0000     0.0000     0.0000 ca         1 UUX      -0.108000
     14 C22          0.0000     0.0000     0.0000 ca         1 UUX      -0.110500
     15 C23          0.0000     0.0000     0.0000 ca         1 UUX      -0.105500
     16 C24          0.0000     0.0000     0.0000 ca         1 UUX      -0.092300
     17 C25          0.0000     0.0000     0.0000 ca         1 UUX      -0.108000
     18 C26          0.0000     0.0000     0.0000 ca         1 UUX      -0.107500
     19 C27          0.0000     0.0000     0.0000 ca         1 UUX      -0.107000
     20 C28          0.0000     0.0000     0.0000 ca         1 UUX      -0.107500
     21 N01          0.0000     0.0000     0.0000 na         1 UUX      -0.201700
     22 N04          0.0000     0.0000     0.0000 nd         1 UUX      -0.053000
     23 N05          0.0000     0.0000     0.0000 nc         1 UUX      -0.209800
     24 N06          0.0000     0.0000     0.0000 nu         1 UUX      -0.816200
     25 C08          0.0000     0.0000     0.0000 c6         1 UUX      -0.090000
     26 C09          0.0000     0.0000     0.0000 c6         1 UUX       0.032800
     27 C12          0.0000     0.0000     0.0000 c3         1 UUX      -0.088767
     28 C14          0.0000     0.0000     0.0000 c3         1 UUX      -0.088767
     29 C29          0.0000     0.0000     0.0000 ca         1 UUX      -0.108000
     30 H9           0.0000     0.0000     0.0000 h1         1 UUX       0.048700
     31 H35          0.0000     0.0000     0.0000 hc         1 UUX       0.039478
     32 H36          0.0000     0.0000     0.0000 hc         1 UUX       0.039478
     33 H34          0.0000     0.0000     0.0000 hc         1 UUX       0.039478
     34 H40          0.0000     0.0000     0.0000 hc         1 UUX       0.064700
     35 H41          0.0000     0.0000     0.0000 hc         1 UUX       0.064700
     36 H44          0.0000     0.0000     0.0000 hc         1 UUX       0.041033
     37 H42          0.0000     0.0000     0.0000 hc         1 UUX       0.041033
     38 H43          0.0000     0.0000     0.0000 hc         1 UUX       0.041033
     39 H45          0.0000     0.0000     0.0000 ha         1 UUX       0.117500
     40 H46          0.0000     0.0000     0.0000 ha         1 UUX       0.114000
     41 H47          0.0000     0.0000     0.0000 ha         1 UUX       0.114000
     42 H48          0.0000     0.0000     0.0000 ha         1 UUX       0.114000
     43 H49          0.0000     0.0000     0.0000 ha         1 UUX       0.117500
     44 H50          0.0000     0.0000     0.0000 ha         1 UUX       0.113500
     45 H51          0.0000     0.0000     0.0000 ha         1 UUX       0.115000
     46 H52          0.0000     0.0000     0.0000 ha         1 UUX       0.116000
     47 H53          0.0000     0.0000     0.0000 ha         1 UUX       0.115000
     48 H17          0.0000     0.0000     0.0000 hn         1 UUX       0.401000
     49 H29          0.0000     0.0000     0.0000 hn         1 UUX       0.461000
     50 H57          0.0000     0.0000     0.0000 hc         1 UUX       0.097700
     51 H61          0.0000     0.0000     0.0000 hc         1 UUX       0.073700
     52 H33          0.0000     0.0000     0.0000 hc         1 UUX       0.039478
     53 H31          0.0000     0.0000     0.0000 hc         1 UUX       0.039478
     54 H32          0.0000     0.0000     0.0000 hc         1 UUX       0.039478
     55 H38          0.0000     0.0000     0.0000 hc         1 UUX       0.039478
     56 H37          0.0000     0.0000     0.0000 hc         1 UUX       0.039478
     57 H39          0.0000     0.0000     0.0000 hc         1 UUX       0.039478
     58 H54          0.0000     0.0000     0.0000 ha         1 UUX       0.113500
@<TRIPOS>BOND
     1     1     2 2   
     2     1    21 1   
     3     1    25 1   
     4     2    22 1   
     5     3     5 1   
     6     3    24 1   
     7     3    25 1   
     8     3    30 1   
     9     4    11 ar  
    10     4    15 ar  
    11     4    26 1   
    12     5     6 1   
    13     5    27 1   
    14     5    28 1   
    15     6    31 1   
    16     6    32 1   
    17     6    33 1   
    18     7     8 2   
    19     7    10 1   
    20     7    26 1   
    21     8     9 1   
    22     8    24 1   
    23     9    16 1   
    24     9    34 1   
    25     9    35 1   
    26    10    36 1   
    27    10    37 1   
    28    10    38 1   
    29    11    12 ar  
    30    11    39 1   
    31    12    13 ar  
    32    12    40 1   
    33    13    14 ar  
    34    13    41 1   
    35    14    15 ar  
    36    14    42 1   
    37    15    43 1   
    38    16    17 ar  
    39    16    29 ar  
    40    17    18 ar  
    41    17    44 1   
    42    18    19 ar  
    43    18    45 1   
    44    19    20 ar  
    45    19    46 1   
    46    20    29 ar  
    47    20    47 1   
    48    21    23 1   
    49    21    48 1   
    50    22    23 2   
    51    24    49 1   
    52    25    26 1   
    53    25    50 1   
    54    26    51 1   
    55    27    52 1   
    56    27    53 1   
    57    27    54 1   
    58    28    55 1   
    59    28    56 1   
    60    28    57 1   
    61    29    58 1   
@<TRIPOS>SUBSTRUCTURE
     1 UUX         1 TEMP              0 ****  ****    0 ROOT
