@<TRIPOS>MOLECULE
UUY
   23    23     1     0     0
SMALL
abcg2


@<TRIPOS>ATOM
      1 N1         -21.5850    11.9470    24.9940 nb         1 UUY      -0.751000
      2 C4         -21.6580    13.2690    26.9870 ca         1 UUY      -0.234000
      3 C5         -22.9600    12.8730    27.2040 ca         1 UUY      -0.035000
      4 C6         -23.5850    12.0090    26.3090 ca         1 UUY      -0.226000
      5 C7         -22.8400    11.5840    25.2260 ca         1 UUY       0.385900
      6 C          -18.9590    13.9600    26.5000 c3         1 UUY       0.214100
      7 O          -17.6820    10.7180    23.7150 oh         1 UUY      -0.661000
      8 C1         -18.9910    12.5480    24.4590 c3         1 UUY       0.230800
      9 C2         -18.3640    11.2160    24.8450 c3         1 UUY       0.134600
     10 C3         -20.9850    12.7840    25.8450 ca         1 UUY       0.618900
     11 H1         -21.1750    13.9350    27.6870 ha         1 UUY       0.120000
     12 H2         -23.4890    13.2390    28.0750 ha         1 UUY       0.112000
     13 H3         -24.6040    11.6760    26.4500 ha         1 UUY       0.123000
     14 H4         -23.2750    10.9050    24.4990 h4         1 UUY       0.014100
     15 H5         -19.4530    14.9130    26.7010 h1         1 UUY       0.037033
     16 H6         -18.8000    13.4530    27.4560 h1         1 UUY       0.037033
     17 H7         -17.9840    14.1840    26.0760 h1         1 UUY       0.037033
     18 H8         -17.2940     9.8700    23.9460 ho         1 UUY       0.444000
     19 H9         -18.2100    13.2400    24.1360 h1         1 UUY       0.070200
     20 H10        -19.6680    12.4060    23.6170 h1         1 UUY       0.070200
     21 H11        -19.1530    10.5310    25.1790 h1         1 UUY       0.024200
     22 H12        -17.6830    11.3660    25.6930 h1         1 UUY       0.024200
     23 N          -19.7060    13.1600    25.5570 nh         1 UUY      -0.792300
@<TRIPOS>BOND
     1     1     5 ar  
     2     1    10 ar  
     3     2     3 ar  
     4     2    10 ar  
     5     2    11 1   
     6     3     4 ar  
     7     3    12 1   
     8     4     5 ar  
     9     4    13 1   
    10     5    14 1   
    11     6    15 1   
    12     6    16 1   
    13     6    17 1   
    14     6    23 1   
    15     7     9 1   
    16     7    18 1   
    17     8     9 1   
    18     8    19 1   
    19     8    20 1   
    20     8    23 1   
    21     9    21 1   
    22     9    22 1   
    23    10    23 1   
@<TRIPOS>SUBSTRUCTURE
     1 UUY         1 TEMP              0 ****  ****    0 ROOT
