@<TRIPOS>MOLECULE
UUY
   23    23     1     0     0
SMALL
No Charge or Current Charge


@<TRIPOS>ATOM
      1 N1         -21.5680    11.7940    25.1650 nb         1 UUY      -0.751000
      2 C4         -21.7800    13.3910    26.9600 ca         1 UUY      -0.234000
      3 C5         -23.1160    13.0230    27.1780 ca         1 UUY      -0.035000
      4 C6         -23.6580    12.0220    26.3630 ca         1 UUY      -0.226000
      5 C7         -22.8540    11.4380    25.3730 ca         1 UUY       0.385900
      6 C          -18.9070    13.9260    26.6020 c3         1 UUY       0.214100
      7 O          -17.5460    10.7890    23.5050 oh         1 UUY      -0.661000
      8 C1         -18.9670    12.5590    24.4750 c3         1 UUY       0.230800
      9 C2         -18.2730    11.1840    24.6820 c3         1 UUY       0.134600
     10 C3         -21.0380    12.7530    25.9460 ca         1 UUY       0.618900
     11 H1         -21.3380    14.1680    27.5740 ha         1 UUY       0.120000
     12 H2         -23.7110    13.5000    27.9540 ha         1 UUY       0.112000
     13 H3         -24.6870    11.6990    26.4880 ha         1 UUY       0.123000
     14 H4         -23.2520    10.6580    24.7250 h4         1 UUY       0.014100
     15 H5         -19.2540    14.9670    26.5520 h1         1 UUY       0.037033
     16 H6         -19.0080    13.5650    27.6350 h1         1 UUY       0.037033
     17 H7         -17.8390    13.9090    26.3490 h1         1 UUY       0.037033
     18 H8         -17.1450     9.9110    23.6960 ho         1 UUY       0.444000
     19 H9         -18.1990    13.2840    24.1720 h1         1 UUY       0.070200
     20 H10        -19.6510    12.4830    23.6190 h1         1 UUY       0.070200
     21 H11        -19.0330    10.4310    24.9280 h1         1 UUY       0.024200
     22 H12        -17.5890    11.2580    25.5380 h1         1 UUY       0.024200
     23 N          -19.6880    13.0750    25.6770 nh         1 UUY      -0.792300
@<TRIPOS>BOND
     1     1     5 ar  
     2     1    10 ar  
     3     2     3 ar  
     4     2    10 ar  
     5     2    11 1   
     6     3     4 ar  
     7     3    12 1   
     8     4     5 ar  
     9     4    13 1   
    10     5    14 1   
    11     6    15 1   
    12     6    16 1   
    13     6    17 1   
    14     6    23 1   
    15     7     9 1   
    16     7    18 1   
    17     8     9 1   
    18     8    19 1   
    19     8    20 1   
    20     8    23 1   
    21     9    21 1   
    22     9    22 1   
    23    10    23 1   
@<TRIPOS>SUBSTRUCTURE
     1 UUY         1 TEMP              0 ****  ****    0 ROOT
