@<TRIPOS>MOLECULE
UUZ
   45    48     1     0     0
SMALL
No Charge or Current Charge


@<TRIPOS>ATOM
      1 C4           8.9410     3.9840   -11.1220 ca         1 UUZ      -0.038000
      2 C5           8.7440     5.3600   -11.4130 ca         1 UUZ       0.007000
      3 C6           7.5910     5.7690   -12.1280 ca         1 UUZ       0.087000
      4 C7          10.1040     3.5820   -10.4230 ca         1 UUZ      -0.087000
      5 C8          11.0500     4.5300   -10.0050 ca         1 UUZ      -0.104000
      6 C10          9.7090     6.3030   -10.9820 ca         1 UUZ      -0.096000
      7 N12          8.1150     1.6290   -11.2490 n          1 UUZ      -0.238000
      8 C15          3.5990     4.3460   -12.0390 ca         1 UUZ      -0.078300
      9 C17          1.9570     3.0370   -13.2910 ca         1 UUZ      -0.105000
     10 C20          4.0520     4.9580   -10.7160 c3         1 UUZ      -0.053800
     11 C21          8.3240     0.7060   -12.2930 c          1 UUZ       0.701400
     12 C24          7.9080     1.1820    -9.9440 c          1 UUZ       0.582000
     13 C26          8.5040    -0.1660    -9.6290 c6         1 UUZ      -0.264700
     14 C16          2.4050     3.5980   -12.0820 ca         1 UUZ      -0.107000
     15 C18          2.6960     3.2220   -14.4700 ca         1 UUZ      -0.106000
     16 C19          3.8890     3.9640   -14.4390 ca         1 UUZ      -0.105000
     17 C14          4.3450     4.5160   -13.2300 ca         1 UUZ       0.082100
     18 C1           6.6460     4.8120   -12.5470 ca         1 UUZ       0.152100
     19 C2           6.8480     3.4510   -12.2630 ca         1 UUZ      -0.138000
     20 Cl1          7.2940     7.4750   -12.5070 cl         1 UUZ      -0.171000
     21 C9          10.8520     5.8880   -10.2820 ca         1 UUZ      -0.094000
     22 C3           7.9810     3.0310   -11.5460 ca         1 UUZ      -0.016000
     23 O25          7.2290     1.7910    -9.1310 o          1 UUZ      -0.474000
     24 C27          8.1270    -1.0820   -10.7560 c2         1 UUZ       0.395300
     25 F30          7.7040    -3.3270   -11.5160 f          1 UUZ      -0.093333
     26 F31          6.7830    -2.7110    -9.6430 f          1 UUZ      -0.093333
     27 F29          8.9260    -3.0890    -9.7310 f          1 UUZ      -0.093333
     28 N22          8.0900    -0.6440   -11.9820 ne         1 UUZ      -0.567100
     29 O23          8.6320     1.0690   -13.4170 o          1 UUZ      -0.427000
     30 H1          10.2950     2.5360   -10.2020 ha         1 UUZ       0.109000
     31 H2          11.9400     4.2090    -9.4680 ha         1 UUZ       0.117000
     32 H3           9.5890     7.3630   -11.1850 ha         1 UUZ       0.129000
     33 H4           1.0340     2.4620   -13.3130 ha         1 UUZ       0.117000
     34 H5           4.4530     5.9680   -10.8590 hc         1 UUZ       0.052700
     35 H6           3.2220     5.0380   -10.0040 hc         1 UUZ       0.052700
     36 H7           4.8320     4.3480   -10.2470 hc         1 UUZ       0.052700
     37 H8           8.1750    -0.5150    -8.6420 hc         1 UUZ       0.120200
     38 H9           9.5970    -0.0760    -9.6650 hc         1 UUZ       0.120200
     39 H10          1.8190     3.4510   -11.1770 ha         1 UUZ       0.116000
     40 H11          2.3470     2.7910   -15.4060 ha         1 UUZ       0.120000
     41 H12          4.4660     4.1060   -15.3500 ha         1 UUZ       0.133000
     42 H13          6.1190     2.7130   -12.5880 ha         1 UUZ       0.139000
     43 H14         11.5860     6.6220    -9.9570 ha         1 UUZ       0.118000
     44 C28          7.8840    -2.5580   -10.4140 c3         1 UUZ       0.277700
     45 O13          5.5230     5.2270   -13.2370 os         1 UUZ      -0.234200
@<TRIPOS>BOND
     1     1     2 ar  
     2     1     4 ar  
     3     1    22 ar  
     4     2     3 ar  
     5     2     6 ar  
     6     3    18 ar  
     7     3    20 1   
     8     4     5 ar  
     9     4    30 1   
    10     5    21 ar  
    11     5    31 1   
    12     6    21 ar  
    13     6    32 1   
    14     7    11 1   
    15     7    12 1   
    16     7    22 1   
    17     8    10 1   
    18     8    14 ar  
    19     8    17 ar  
    20     9    14 ar  
    21     9    15 ar  
    22     9    33 1   
    23    10    34 1   
    24    10    35 1   
    25    10    36 1   
    26    11    28 1   
    27    11    29 2   
    28    12    13 1   
    29    12    23 2   
    30    13    24 1   
    31    13    37 1   
    32    13    38 1   
    33    14    39 1   
    34    15    16 ar  
    35    15    40 1   
    36    16    17 ar  
    37    16    41 1   
    38    17    45 1   
    39    18    19 ar  
    40    18    45 1   
    41    19    22 ar  
    42    19    42 1   
    43    21    43 1   
    44    24    28 2   
    45    24    44 1   
    46    25    44 1   
    47    26    44 1   
    48    27    44 1   
@<TRIPOS>SUBSTRUCTURE
     1 UUZ         1 TEMP              0 ****  ****    0 ROOT
