@<TRIPOS>MOLECULE
UUZ
   45    48     1     0     0
SMALL
abcg2


@<TRIPOS>ATOM
      1 C4           8.9490     3.9360   -11.1570 ca         1 UUZ      -0.038000
      2 C5           8.7940     5.3100   -11.4890 ca         1 UUZ       0.007000
      3 C6           7.5880     5.7280   -12.1020 ca         1 UUZ       0.087000
      4 C7          10.1470     3.5050   -10.5440 ca         1 UUZ      -0.087000
      5 C8          11.1490     4.3930   -10.2660 ca         1 UUZ      -0.104000
      6 C10          9.8490     6.2030   -11.1860 ca         1 UUZ      -0.096000
      7 N12          8.0010     1.6690   -11.1290 n          1 UUZ      -0.238000
      8 C15          3.5370     4.3680   -11.9730 ca         1 UUZ      -0.078300
      9 C17          2.0660     3.0170   -13.3510 ca         1 UUZ      -0.105000
     10 C20          3.8730     5.0050   -10.6580 c3         1 UUZ      -0.053800
     11 C21          8.4980     0.8130   -12.1080 c          1 UUZ       0.701400
     12 C24          7.5890     1.2750    -9.8670 c          1 UUZ       0.582000
     13 C26          7.7190    -0.1860    -9.5580 c6         1 UUZ      -0.264700
     14 C16          2.3870     3.5990   -12.1330 ca         1 UUZ      -0.107000
     15 C18          2.8950     3.1990   -14.4480 ca         1 UUZ      -0.106000
     16 C19          4.0500     3.9560   -14.3170 ca         1 UUZ      -0.105000
     17 C14          4.3540     4.5250   -13.0910 ca         1 UUZ       0.082100
     18 C1           6.5830     4.8380   -12.3940 ca         1 UUZ       0.152100
     19 C2           6.7420     3.4790   -12.0630 ca         1 UUZ      -0.138000
     20 CL1          7.3450     7.3870   -12.5070 cl         1 UUZ      -0.171000
     21 C9          10.9950     5.7540   -10.5910 ca         1 UUZ      -0.094000
     22 C3           7.8880     3.0540   -11.4610 ca         1 UUZ      -0.016000
     23 O25          7.1620     2.0710    -9.0720 o          1 UUZ      -0.474000
     24 C27          8.2070    -0.9930   -10.7000 c2         1 UUZ       0.395300
     25 F30          7.6830    -3.1400   -11.4950 f          1 UUZ      -0.093333
     26 F31          7.8830    -2.9200    -9.3620 f          1 UUZ      -0.093333
     27 F29          9.6290    -2.8470   -10.6200 f          1 UUZ      -0.093333
     28 N22          8.5540    -0.5590   -11.8340 ne         1 UUZ      -0.567100
     29 O23          8.8680     1.2320   -13.1700 o          1 UUZ      -0.427000
     30 H1          10.2780     2.4610   -10.2910 ha         1 UUZ       0.109000
     31 H2          12.0610     4.0500    -9.7960 ha         1 UUZ       0.117000
     32 H3           9.7500     7.2510   -11.4290 ha         1 UUZ       0.129000
     33 H4           1.1630     2.4270   -13.4430 ha         1 UUZ       0.117000
     34 H5           4.1410     6.0560   -10.7720 hc         1 UUZ       0.052700
     35 H6           3.0260     4.9460    -9.9780 hc         1 UUZ       0.052700
     36 H7           4.7160     4.5080   -10.1710 hc         1 UUZ       0.052700
     37 H8           6.7470    -0.5550    -9.2150 hc         1 UUZ       0.120200
     38 H9           8.3960    -0.3020    -8.7040 hc         1 UUZ       0.120200
     39 H10          1.7290     3.4600   -11.2840 ha         1 UUZ       0.116000
     40 H11          2.6490     2.7540   -15.4030 ha         1 UUZ       0.120000
     41 H12          4.7130     4.1110   -15.1590 ha         1 UUZ       0.133000
     42 H13          5.9580     2.7670   -12.2840 ha         1 UUZ       0.139000
     43 H14         11.7910     6.4520   -10.3690 ha         1 UUZ       0.118000
     44 C28          8.3460    -2.5020   -10.5370 c3         1 UUZ       0.277700
     45 O13          5.4800     5.3160   -13.0050 os         1 UUZ      -0.234200
@<TRIPOS>BOND
     1     1     2 ar  
     2     1     4 ar  
     3     1    22 ar  
     4     2     3 ar  
     5     2     6 ar  
     6     3    18 ar  
     7     3    20 1   
     8     4     5 ar  
     9     4    30 1   
    10     5    21 ar  
    11     5    31 1   
    12     6    21 ar  
    13     6    32 1   
    14     7    11 1   
    15     7    12 1   
    16     7    22 1   
    17     8    10 1   
    18     8    14 ar  
    19     8    17 ar  
    20     9    14 ar  
    21     9    15 ar  
    22     9    33 1   
    23    10    34 1   
    24    10    35 1   
    25    10    36 1   
    26    11    28 1   
    27    11    29 2   
    28    12    13 1   
    29    12    23 2   
    30    13    24 1   
    31    13    37 1   
    32    13    38 1   
    33    14    39 1   
    34    15    16 ar  
    35    15    40 1   
    36    16    17 ar  
    37    16    41 1   
    38    17    45 1   
    39    18    19 ar  
    40    18    45 1   
    41    19    22 ar  
    42    19    42 1   
    43    21    43 1   
    44    24    28 2   
    45    24    44 1   
    46    25    44 1   
    47    26    44 1   
    48    27    44 1   
@<TRIPOS>SUBSTRUCTURE
     1 UUZ         1 TEMP              0 ****  ****    0 ROOT
