@<TRIPOS>MOLECULE
UV1
   27    28     1     0     0
SMALL
abcg2


@<TRIPOS>ATOM
      1 C4         -18.3060    10.7640    24.1700 ca         1 UV1      -0.177000
      2 C5         -18.6020    12.0320    24.6680 ca         1 UV1       0.002000
      3 C6         -19.7650    12.8600    26.6830 c          1 UV1       0.576000
      4 C7         -18.4700    13.4790    27.1390 c3         1 UV1      -0.162400
      5 C8         -18.0540    14.7050    26.3160 c3         1 UV1      -0.061400
      6 C10        -17.8280    13.1430    24.3370 ca         1 UV1      -0.133300
      7 N          -19.7270    12.1960    25.4950 ns         1 UV1      -0.166000
      8 C          -14.8010    13.9190    22.4760 c3         1 UV1       0.148900
      9 C1         -16.6830    12.9450    23.5510 ca         1 UV1       0.164100
     10 C2         -16.3740    11.6800    23.0570 ca         1 UV1      -0.213000
     11 C3         -17.2000    10.6040    23.3590 ca         1 UV1      -0.054000
     12 C9         -18.2590    14.5020    24.8130 c3         1 UV1      -0.023100
     13 O1         -20.7880    12.9170    27.3360 o          1 UV1      -0.549000
     14 H1         -18.9310     9.9190    24.4300 ha         1 UV1       0.121000
     15 H2         -17.6840    12.7220    27.0800 hc         1 UV1       0.068200
     16 H3         -18.5740    13.7520    28.1890 hc         1 UV1       0.068200
     17 H4         -17.0040    14.9130    26.5300 hc         1 UV1       0.049200
     18 H5         -18.6210    15.5810    26.6360 hc         1 UV1       0.049200
     19 H6         -20.5520    11.6590    25.2650 hn         1 UV1       0.155000
     20 H7         -14.3740    14.9150    22.3920 h1         1 UV1       0.042033
     21 H8         -14.0520    13.2510    22.9090 h1         1 UV1       0.042033
     22 H9         -15.0570    13.5590    21.4760 h1         1 UV1       0.042033
     23 H10        -15.5030    11.5150    22.4380 ha         1 UV1       0.120000
     24 H11        -16.9580     9.6250    22.9660 ha         1 UV1       0.115000
     25 H12        -17.7470    15.2900    24.2650 hc         1 UV1       0.058700
     26 H13        -19.3230    14.6170    24.5870 hc         1 UV1       0.058700
     27 O          -15.9410    14.0410    23.3020 os         1 UV1      -0.342100
@<TRIPOS>BOND
     1     1     2 ar  
     2     1    11 ar  
     3     1    14 1   
     4     2     6 ar  
     5     2     7 1   
     6     3     4 1   
     7     3     7 1   
     8     3    13 2   
     9     4     5 1   
    10     4    15 1   
    11     4    16 1   
    12     5    12 1   
    13     5    17 1   
    14     5    18 1   
    15     6     9 ar  
    16     6    12 1   
    17     7    19 1   
    18     8    20 1   
    19     8    21 1   
    20     8    22 1   
    21     8    27 1   
    22     9    10 ar  
    23     9    27 1   
    24    10    11 ar  
    25    10    23 1   
    26    11    24 1   
    27    12    25 1   
    28    12    26 1   
@<TRIPOS>SUBSTRUCTURE
     1 UV1         1 TEMP              0 ****  ****    0 ROOT
