@<TRIPOS>MOLECULE
UV1
   27    28     1     0     0
SMALL
No Charge or Current Charge


@<TRIPOS>ATOM
      1 C4         -18.2780    10.7060    24.1750 ca         1 UV1      -0.177000
      2 C5         -18.5840    11.9620    24.7210 ca         1 UV1       0.002000
      3 C6         -19.8630    12.9200    26.6660 c          1 UV1       0.576000
      4 C7         -18.5680    13.4990    27.2510 c3         1 UV1      -0.162400
      5 C8         -18.0660    14.6990    26.4170 c3         1 UV1      -0.061400
      6 C10        -17.7990    13.0990    24.3860 ca         1 UV1      -0.133300
      7 N          -19.6870    12.0500    25.6070 ns         1 UV1      -0.166000
      8 C          -14.7620    13.9680    22.3520 c3         1 UV1       0.148900
      9 C1         -16.6810    12.9340    23.5280 ca         1 UV1       0.164100
     10 C2         -16.3750    11.6570    23.0080 ca         1 UV1      -0.213000
     11 C3         -17.1760    10.5500    23.3240 ca         1 UV1      -0.054000
     12 C9         -18.2060    14.4990    24.8870 c3         1 UV1      -0.023100
     13 O1         -20.9690    13.1880    27.1170 o          1 UV1      -0.549000
     14 H1         -18.8860     9.8390    24.4250 ha         1 UV1       0.121000
     15 H2         -17.7800    12.7380    27.1950 hc         1 UV1       0.068200
     16 H3         -18.7230    13.8090    28.2900 hc         1 UV1       0.068200
     17 H4         -17.0130    14.8860    26.6630 hc         1 UV1       0.049200
     18 H5         -18.6200    15.6020    26.7050 hc         1 UV1       0.049200
     19 H6         -20.5130    11.5430    25.3170 hn         1 UV1       0.155000
     20 H7         -14.3060    14.9600    22.2430 h1         1 UV1       0.042033
     21 H8         -14.0050    13.2910    22.7690 h1         1 UV1       0.042033
     22 H9         -15.0430    13.6120    21.3530 h1         1 UV1       0.042033
     23 H10        -15.5260    11.5030    22.3490 ha         1 UV1       0.120000
     24 H11        -16.9390     9.5700    22.9130 ha         1 UV1       0.115000
     25 H12        -17.6460    15.2970    24.3860 hc         1 UV1       0.058700
     26 H13        -19.2510    14.6840    24.6060 hc         1 UV1       0.058700
     27 O          -15.9130    14.0410    23.2130 os         1 UV1      -0.342100
@<TRIPOS>BOND
     1     1     2 ar  
     2     1    11 ar  
     3     1    14 1   
     4     2     6 ar  
     5     2     7 1   
     6     3     4 1   
     7     3     7 1   
     8     3    13 2   
     9     4     5 1   
    10     4    15 1   
    11     4    16 1   
    12     5    12 1   
    13     5    17 1   
    14     5    18 1   
    15     6     9 ar  
    16     6    12 1   
    17     7    19 1   
    18     8    20 1   
    19     8    21 1   
    20     8    22 1   
    21     8    27 1   
    22     9    10 ar  
    23     9    27 1   
    24    10    11 ar  
    25    10    23 1   
    26    11    24 1   
    27    12    25 1   
    28    12    26 1   
@<TRIPOS>SUBSTRUCTURE
     1 UV1         1 TEMP              0 ****  ****    0 ROOT
