@<TRIPOS>MOLECULE
UV3
   26    27     1     0     0
SMALL
abcg2


@<TRIPOS>ATOM
      1 C10         35.6950    -7.1280   -39.1210 ca         1 UV3      -0.168000
      2 C12         35.9830    -7.7130   -36.7990 ca         1 UV3      -0.038900
      3 C14         41.8400    -4.6840   -37.2430 c          1 UV3       0.691000
      4 O16         41.4650    -3.4970   -37.3260 o          1 UV3      -0.736000
      5 C02         41.5230    -5.5740   -38.4780 c3         1 UV3       0.010500
      6 C03         40.0270    -5.5780   -38.8000 c3         1 UV3       0.018800
      7 C04         39.1340    -6.2370   -37.7940 cc         1 UV3      -0.100400
      8 C05         39.3680    -6.5400   -36.4830 cd         1 UV3      -0.140100
      9 C07         37.2800    -7.2080   -36.8570 ca         1 UV3      -0.037200
     10 C08         37.7890    -6.6610   -38.0570 ca         1 UV3      -0.097800
     11 C09         36.9790    -6.6240   -39.1960 ca         1 UV3      -0.038000
     12 C11         35.1930    -7.6730   -37.9300 ca         1 UV3      -0.080000
     13 N01         42.0390    -6.9360   -38.4510 n8         1 UV3      -0.996200
     14 N06         38.2600    -7.1210   -35.9210 na         1 UV3      -0.223700
     15 BR13        35.3310    -8.4430   -35.1860 br         1 UV3      -0.143100
     16 H1          35.0540    -7.1090   -39.9930 ha         1 UV3       0.100000
     17 H2          42.0010    -5.0760   -39.3310 h1         1 UV3       0.041700
     18 H3          39.7030    -4.5450   -38.9510 hc         1 UV3       0.040200
     19 H4          39.8850    -6.0750   -39.7650 hc         1 UV3       0.040200
     20 H5          40.2540    -6.3870   -35.8880 h4         1 UV3       0.257000
     21 H6          37.3510    -6.2080   -40.1230 ha         1 UV3       0.116000
     22 H7          34.1840    -8.0600   -37.9030 ha         1 UV3       0.108000
     23 H8          43.0310    -6.8960   -38.2520 hn         1 UV3       0.380000
     24 H9          41.6460    -7.4260   -37.6560 hn         1 UV3       0.380000
     25 H11         38.2000    -7.4350   -34.9670 hn         1 UV3       0.350000
     26 O15         42.4510    -5.2110   -36.2900 o          1 UV3      -0.736000
@<TRIPOS>BOND
     1     1    11 ar  
     2     1    12 ar  
     3     1    16 1   
     4     2     9 ar  
     5     2    12 ar  
     6     2    15 1   
     7     3     4 1   
     8     3     5 1   
     9     3    26 1   
    10     5     6 1   
    11     5    13 1   
    12     5    17 1   
    13     6     7 1   
    14     6    18 1   
    15     6    19 1   
    16     7     8 2   
    17     7    10 1   
    18     8    14 1   
    19     8    20 1   
    20     9    10 ar  
    21     9    14 1   
    22    10    11 ar  
    23    11    21 1   
    24    12    22 1   
    25    13    23 1   
    26    13    24 1   
    27    14    25 1   
@<TRIPOS>SUBSTRUCTURE
     1 UV3         1 TEMP              0 ****  ****    0 ROOT
