@<TRIPOS>MOLECULE
UV3
   26    27     1     0     0
SMALL
No Charge or Current Charge


@<TRIPOS>ATOM
      1 C10         35.6110    -6.9780   -39.0960 ca         1 UV3      -0.168000
      2 C12         35.9470    -7.6900   -36.7780 ca         1 UV3      -0.038900
      3 C14         41.7110    -4.5190   -37.2910 c          1 UV3       0.691000
      4 O16         41.4080    -3.3510   -37.4890 o          1 UV3      -0.736000
      5 C02         41.5470    -5.5510   -38.4840 c3         1 UV3       0.010500
      6 C03         40.0510    -5.7480   -38.8680 c3         1 UV3       0.018800
      7 C04         39.1460    -6.3850   -37.8310 cc         1 UV3      -0.100400
      8 C05         39.4260    -6.7580   -36.5150 cd         1 UV3      -0.140100
      9 C07         37.2800    -7.2640   -36.8820 ca         1 UV3      -0.037200
     10 C08         37.7630    -6.7190   -38.0380 ca         1 UV3      -0.097800
     11 C09         36.9560    -6.5580   -39.1740 ca         1 UV3      -0.038000
     12 C11         35.1070    -7.5440   -37.9010 ca         1 UV3      -0.080000
     13 N01         42.2600    -6.8800   -38.3620 n8         1 UV3      -0.996200
     14 N06         38.2670    -7.3100   -35.9160 na         1 UV3      -0.223700
     15 Br13        35.2740    -8.4530   -35.1550 br         1 UV3      -0.143100
     16 H1          34.9590    -6.8670   -39.9600 ha         1 UV3       0.100000
     17 H2          42.0150    -5.0500   -39.3430 h1         1 UV3       0.041700
     18 H3          39.6350    -4.7700   -39.1380 hc         1 UV3       0.040200
     19 H4          40.0070    -6.3460   -39.7870 hc         1 UV3       0.040200
     20 H5          40.3560    -6.6680   -35.9590 h4         1 UV3       0.257000
     21 H6          37.3520    -6.1220   -40.0880 ha         1 UV3       0.116000
     22 H7          34.0690    -7.8650   -37.8490 ha         1 UV3       0.108000
     23 H8          43.2360    -6.7030   -38.0920 hn         1 UV3       0.380000
     24 H9          41.8850    -7.3790   -37.5480 hn         1 UV3       0.380000
     25 H11         38.1740    -7.6640   -34.9680 hn         1 UV3       0.350000
     26 O15         42.2220    -4.9040   -36.2460 o          1 UV3      -0.736000
@<TRIPOS>BOND
     1     1    11 ar  
     2     1    12 ar  
     3     1    16 1   
     4     2     9 ar  
     5     2    12 ar  
     6     2    15 1   
     7     3     4 1   
     8     3     5 1   
     9     3    26 1   
    10     5     6 1   
    11     5    13 1   
    12     5    17 1   
    13     6     7 1   
    14     6    18 1   
    15     6    19 1   
    16     7     8 2   
    17     7    10 1   
    18     8    14 1   
    19     8    20 1   
    20     9    10 ar  
    21     9    14 1   
    22    10    11 ar  
    23    11    21 1   
    24    12    22 1   
    25    13    23 1   
    26    13    24 1   
    27    14    25 1   
@<TRIPOS>SUBSTRUCTURE
     1 UV3         1 TEMP              0 ****  ****    0 ROOT
