@<TRIPOS>MOLECULE
UV4
   29    30     1     0     0
SMALL
bcc


@<TRIPOS>ATOM
      1 C01         -0.7960    -1.9150     0.5250 ca         1 UV4      -0.107000
      2 C02         -2.1310    -2.2820     0.5790 ca         1 UV4      -0.122000
      3 C03         -3.1400    -1.3720     0.3100 ca         1 UV4      -0.093000
      4 C04         -2.7930    -0.0610    -0.0190 ca         1 UV4      -0.141600
      5 C05         -3.8090     0.9560    -0.2890 c          1 UV4       0.586100
      6 O06         -3.6240     2.0700    -0.6870 o          1 UV4      -0.472100
      7 N07         -5.2200     0.4770    -0.0620 ne         1 UV4      -0.050100
      8 O08         -5.9490     1.3800     0.1760 o          1 UV4      -0.093300
      9 C09         -1.4530     0.3140    -0.0840 ca         1 UV4      -0.131000
     10 C10         -0.4450    -0.6030     0.1850 ca         1 UV4       0.061600
     11 N11          0.8700    -0.1380     0.1340 ns         1 UV4      -0.473100
     12 C12          2.0110    -0.8660    -0.0090 c          1 UV4       0.689700
     13 O13          2.0260    -2.0760    -0.1400 o          1 UV4      -0.575100
     14 C14          3.2710    -0.0660    -0.0130 ca         1 UV4      -0.159600
     15 C15          4.3670    -0.5760    -0.7070 ca         1 UV4      -0.088000
     16 C16          5.5630     0.1210    -0.7330 ca         1 UV4      -0.136000
     17 C17          5.6840     1.3250    -0.0500 ca         1 UV4      -0.102000
     18 C18          4.6020     1.8290     0.6590 ca         1 UV4      -0.136000
     19 C19          3.3980     1.1400     0.6750 ca         1 UV4      -0.088000
     20 H01         -0.0420    -2.6500     0.7530 ha         1 UV4       0.167000
     21 H02         -2.3850    -3.3000     0.8400 ha         1 UV4       0.142000
     22 H03         -4.1730    -1.6870     0.3520 ha         1 UV4       0.152000
     23 H09         -1.1960     1.3340    -0.3440 ha         1 UV4       0.147000
     24 HN11         0.9620     0.8640     0.0640 hn         1 UV4       0.324500
     25 H15          4.2800    -1.5150    -1.2370 ha         1 UV4       0.143000
     26 H16          6.4040    -0.2750    -1.2870 ha         1 UV4       0.138000
     27 H17          6.6210     1.8660    -0.0630 ha         1 UV4       0.136000
     28 H18          4.6940     2.7580     1.2060 ha         1 UV4       0.138000
     29 H19          2.5760     1.5410     1.2550 ha         1 UV4       0.143000
@<TRIPOS>BOND
     1     1     2 ar  
     2     1    10 ar  
     3     1    20 1   
     4     2     3 ar  
     5     2    21 1   
     6     3     4 ar  
     7     3    22 1   
     8     4     5 1   
     9     4     9 ar  
    10     5     6 2   
    11     5     7 1   
    12     7     8 2   
    13     9    10 ar  
    14     9    23 1   
    15    10    11 1   
    16    11    12 1   
    17    11    24 1   
    18    12    13 2   
    19    12    14 1   
    20    14    15 ar  
    21    14    19 ar  
    22    15    16 ar  
    23    15    25 1   
    24    16    17 ar  
    25    16    26 1   
    26    17    18 ar  
    27    17    27 1   
    28    18    19 ar  
    29    18    28 1   
    30    19    29 1   
@<TRIPOS>SUBSTRUCTURE
     1 UV4         1 TEMP              0 ****  ****    0 ROOT
