@<TRIPOS>MOLECULE
UV4
   29    30     1     0     0
SMALL
No Charge or Current Charge


@<TRIPOS>ATOM
      1 C01         -0.8740    -2.0460     0.0950 ca         1 UV4      -0.089000
      2 C02         -2.2360    -2.3800     0.1460 ca         1 UV4      -0.104000
      3 C03         -3.2160    -1.3760     0.2020 ca         1 UV4      -0.075000
      4 C04         -2.8420    -0.0100     0.2100 ca         1 UV4      -0.141600
      5 C05         -3.8740     1.1070     0.2710 c          1 UV4       0.586100
      6 O06         -3.5290     2.2850     0.2780 o          1 UV4      -0.472100
      7 N07         -5.2090     0.6910     0.3180 ne         1 UV4      -0.050100
      8 O08         -6.2540     1.3600     0.3720 o          1 UV4      -0.093300
      9 C09         -1.4640     0.3090     0.1590 ca         1 UV4      -0.113000
     10 C10         -0.4760    -0.6930     0.0990 ca         1 UV4      -0.031000
     11 N11          0.8830    -0.2680     0.0520 ns         1 UV4      -0.147000
     12 C12          2.0830    -0.9620    -0.0650 c          1 UV4       0.622700
     13 O13          2.1460    -2.1830    -0.1690 o          1 UV4      -0.575100
     14 C14          3.3430    -0.1110    -0.0630 ca         1 UV4      -0.159600
     15 C15          4.6060    -0.7370    -0.1820 ca         1 UV4      -0.070000
     16 C16          5.7890     0.0210    -0.1830 ca         1 UV4      -0.118000
     17 C17          5.7320     1.4170    -0.0650 ca         1 UV4      -0.084000
     18 C18          4.4880     2.0560     0.0540 ca         1 UV4      -0.118000
     19 C19          3.3010     1.3030     0.0560 ca         1 UV4      -0.070000
     20 H01         -0.1500    -2.8540     0.0580 ha         1 UV4       0.149000
     21 H02         -2.5360    -3.4260     0.1430 ha         1 UV4       0.124000
     22 H03         -4.2610    -1.6790     0.2400 ha         1 UV4       0.134000
     23 H09         -1.1540     1.3520     0.1640 ha         1 UV4       0.129000
     24 HN11         0.9940     0.7340     0.1190 hn         1 UV4       0.158000
     25 H15          4.6780    -1.8200    -0.2750 ha         1 UV4       0.125000
     26 H16          6.7530    -0.4770    -0.2750 ha         1 UV4       0.120000
     27 H17          6.6490     2.0040    -0.0660 ha         1 UV4       0.118000
     28 H18          4.4430     3.1390     0.1460 ha         1 UV4       0.120000
     29 H19          2.3590     1.8380     0.1510 ha         1 UV4       0.125000
@<TRIPOS>BOND
     1     1     2 ar  
     2     1    10 ar  
     3     1    20 1   
     4     2     3 ar  
     5     2    21 1   
     6     3     4 ar  
     7     3    22 1   
     8     4     5 1   
     9     4     9 ar  
    10     5     6 2   
    11     5     7 1   
    12     7     8 2   
    13     9    10 ar  
    14     9    23 1   
    15    10    11 1   
    16    11    12 1   
    17    11    24 1   
    18    12    13 2   
    19    12    14 1   
    20    14    15 ar  
    21    14    19 ar  
    22    15    16 ar  
    23    15    25 1   
    24    16    17 ar  
    25    16    26 1   
    26    17    18 ar  
    27    17    27 1   
    28    18    19 ar  
    29    18    28 1   
    30    19    29 1   
@<TRIPOS>SUBSTRUCTURE
     1 UV4         1 TEMP              0 ****  ****    0 ROOT
