@<TRIPOS>MOLECULE
UV5
   44    47     1     0     0
SMALL
abcg2


@<TRIPOS>ATOM
      1 N1         -40.6640     0.5670   -11.9400 na         1 UV5       0.153100
      2 C4         -41.7790     2.6820   -11.7590 cc         1 UV5      -0.041000
      3 C5         -41.8050     1.2810   -11.6360 cc         1 UV5      -0.073000
      4 C8         -42.2800    -0.7710   -11.3080 cd         1 UV5       0.051800
      5 C10        -43.0900    -1.9580   -10.9990 ca         1 UV5       0.429800
      6 C13        -44.6680    -4.1230   -10.5130 ca         1 UV5      -0.158000
      7 C15        -42.5530    -3.0390   -10.3070 ca         1 UV5      -0.152000
      8 C17        -39.0980    -2.1130   -11.0950 c          1 UV5       0.579000
      9 C21        -40.2360    -2.4170   -13.2700 c          1 UV5       0.699400
     10 C28        -39.5200     1.1660   -12.3800 cc         1 UV5      -0.114000
     11 C14        -43.3570    -4.1420   -10.0660 ca         1 UV5      -0.076000
     12 C12        -45.1170    -2.9870   -11.1740 ca         1 UV5       0.340900
     13 N11        -44.3550    -1.9310   -11.4150 nb         1 UV5      -0.629000
     14 N7         -42.7860     0.4790   -11.2620 nd         1 UV5      -0.242600
     15 C3         -40.6350     3.2980   -12.1840 cd         1 UV5      -0.134600
     16 O30        -39.7560     5.2330   -13.2190 o          1 UV5      -0.594100
     17 N29        -41.3240     5.5470   -11.6330 ns         1 UV5      -0.500900
     18 C31        -41.3350     6.9870   -11.7560 c3         1 UV5       0.093300
     19 C2         -39.4960     2.5130   -12.5120 cd         1 UV5      -0.096000
     20 C9         -40.9690    -0.7480   -11.7250 cc         1 UV5      -0.071500
     21 N16        -40.0780    -1.7830   -12.0280 n          1 UV5      -0.306600
     22 C18        -38.1530    -3.2020   -11.4990 c6         1 UV5      -0.267700
     23 C19        -38.5560    -3.9050   -12.7430 c2         1 UV5       0.395300
     24 F26        -36.4840    -4.8980   -13.1880 f          1 UV5      -0.091333
     25 F27        -37.9580    -6.0870   -12.1560 f          1 UV5      -0.091333
     26 F25        -38.1840    -5.6740   -14.2580 f          1 UV5      -0.091333
     27 N20        -39.4730    -3.5570   -13.5370 ne         1 UV5      -0.558100
     28 O23        -41.0240    -2.0100   -14.0730 o          1 UV5      -0.407000
     29 H1         -42.6910     3.2190   -11.5340 ha         1 UV5       0.147000
     30 H2         -45.3330    -4.9590   -10.3490 ha         1 UV5       0.125000
     31 H3         -41.5400    -3.0140    -9.9320 ha         1 UV5       0.121000
     32 H4         -38.6790     0.5300   -12.6140 h4         1 UV5       0.145000
     33 H5         -42.9650    -4.9960    -9.5300 ha         1 UV5       0.119000
     34 H6         -46.1410    -2.9320   -11.5270 h4         1 UV5       0.023100
     35 H7         -41.8480     5.1370   -10.8780 hn         1 UV5       0.320500
     36 H8         -42.0960     7.3810   -11.0890 h1         1 UV5       0.043700
     37 H9         -40.3750     7.4260   -11.4830 h1         1 UV5       0.043700
     38 H10        -41.5770     7.2950   -12.7730 h1         1 UV5       0.043700
     39 H11        -38.5920     2.9840   -12.8690 ha         1 UV5       0.154000
     40 H12        -38.0420    -3.9020   -10.6660 hc         1 UV5       0.121200
     41 H13        -37.1620    -2.7540   -11.6400 hc         1 UV5       0.121200
     42 C6         -40.5330     4.7780   -12.3910 c          1 UV5       0.611700
     43 O22        -39.0190    -1.5290   -10.0480 o          1 UV5      -0.467000
     44 C24        -37.7880    -5.1650   -13.1050 c3         1 UV5       0.278700
@<TRIPOS>BOND
     1     1     3 1   
     2     1    10 1   
     3     1    20 1   
     4     2     3 1   
     5     2    15 2   
     6     2    29 1   
     7     3    14 2   
     8     4     5 1   
     9     4    14 1   
    10     4    20 2   
    11     5     7 ar  
    12     5    13 ar  
    13     6    11 ar  
    14     6    12 ar  
    15     6    30 1   
    16     7    11 ar  
    17     7    31 1   
    18     8    21 1   
    19     8    22 1   
    20     8    43 2   
    21     9    21 1   
    22     9    27 1   
    23     9    28 2   
    24    10    19 2   
    25    10    32 1   
    26    11    33 1   
    27    12    13 ar  
    28    12    34 1   
    29    15    19 1   
    30    15    42 1   
    31    16    42 2   
    32    17    18 1   
    33    17    35 1   
    34    17    42 1   
    35    18    36 1   
    36    18    37 1   
    37    18    38 1   
    38    19    39 1   
    39    20    21 1   
    40    22    23 1   
    41    22    40 1   
    42    22    41 1   
    43    23    27 2   
    44    23    44 1   
    45    24    44 1   
    46    25    44 1   
    47    26    44 1   
@<TRIPOS>SUBSTRUCTURE
     1 UV5         1 TEMP              0 ****  ****    0 ROOT
