@<TRIPOS>MOLECULE
UV5
   44    47     1     0     0
SMALL
No Charge or Current Charge


@<TRIPOS>ATOM
      1 N1         -40.6510     0.5590   -11.8370 na         1 UV5       0.153100
      2 C4         -41.6530     2.7510   -11.6180 cc         1 UV5      -0.041000
      3 C5         -41.7410     1.3330   -11.5880 cc         1 UV5      -0.073000
      4 C8         -42.3310    -0.7550   -11.4880 cd         1 UV5       0.051800
      5 C10        -43.2040    -1.9100   -11.1650 ca         1 UV5       0.429800
      6 C13        -44.8670    -4.0630   -10.6870 ca         1 UV5      -0.158000
      7 C15        -42.6860    -3.0600   -10.5300 ca         1 UV5      -0.152000
      8 C17        -38.8740    -1.9390   -11.5060 c          1 UV5       0.579000
      9 C21        -40.5720    -2.9280   -12.9340 c          1 UV5       0.699400
     10 C28        -39.4630     1.0630   -12.3760 cc         1 UV5      -0.114000
     11 C14        -43.5280    -4.1560   -10.2820 ca         1 UV5      -0.076000
     12 C12        -45.3110    -2.8900   -11.3180 ca         1 UV5       0.340900
     13 N11        -44.5030    -1.8330   -11.5580 nb         1 UV5      -0.629000
     14 N7         -42.7780     0.5590   -11.3220 nd         1 UV5      -0.242600
     15 C3         -40.4570     3.3460   -11.9910 cd         1 UV5      -0.134600
     16 O30        -39.2460     5.3770   -12.3850 o          1 UV5      -0.594100
     17 N29        -41.3770     5.5780   -11.6360 ns         1 UV5      -0.500900
     18 C31        -41.4100     7.0420   -11.6030 c3         1 UV5       0.093300
     19 C2         -39.3790     2.4550   -12.3880 cd         1 UV5      -0.096000
     20 C9         -40.9830    -0.7760   -11.8300 cc         1 UV5      -0.071500
     21 N16        -40.1360    -1.8730   -12.0990 n          1 UV5      -0.306600
     22 C18        -37.8630    -2.7550   -12.2640 c6         1 UV5      -0.267700
     23 C19        -38.5350    -4.0630   -12.5700 c2         1 UV5       0.395300
     24 F26        -36.5640    -5.1960   -13.3090 f          1 UV5      -0.091333
     25 F27        -37.2500    -5.6080   -11.2830 f          1 UV5      -0.091333
     26 F25        -38.3310    -6.4240   -12.9860 f          1 UV5      -0.091333
     27 N20        -39.7970    -4.0970   -12.8910 ne         1 UV5      -0.558100
     28 O23        -41.5790    -2.8370   -13.6160 o          1 UV5      -0.407000
     29 H1         -42.5440     3.3130   -11.3610 ha         1 UV5       0.147000
     30 H2         -45.5580    -4.8850   -10.5180 ha         1 UV5       0.125000
     31 H3         -41.6480    -3.0940   -10.2140 ha         1 UV5       0.121000
     32 H4         -38.6910     0.3820   -12.7040 h4         1 UV5       0.145000
     33 H5         -43.1520    -5.0500    -9.7880 ha         1 UV5       0.119000
     34 H6         -46.3460    -2.7930   -11.6430 h4         1 UV5       0.023100
     35 H7         -42.2040     5.0720   -11.3460 hn         1 UV5       0.320500
     36 H8         -42.3940     7.3800   -11.2530 h1         1 UV5       0.043700
     37 H9         -40.6360     7.4140   -10.9190 h1         1 UV5       0.043700
     38 H10        -41.2290     7.4390   -12.6100 h1         1 UV5       0.043700
     39 H11        -38.4490     2.8960   -12.7360 ha         1 UV5       0.154000
     40 H12        -36.9330    -2.8560   -11.6910 hc         1 UV5       0.121200
     41 H13        -37.6810    -2.2740   -13.2340 hc         1 UV5       0.121200
     42 C6         -40.2840     4.8350   -12.0310 c          1 UV5       0.611700
     43 O22        -38.6240    -1.4450   -10.4170 o          1 UV5      -0.467000
     44 C24        -37.6700    -5.3290   -12.5390 c3         1 UV5       0.278700
@<TRIPOS>BOND
     1     1     3 1   
     2     1    10 1   
     3     1    20 1   
     4     2     3 1   
     5     2    15 2   
     6     2    29 1   
     7     3    14 2   
     8     4     5 1   
     9     4    14 1   
    10     4    20 2   
    11     5     7 ar  
    12     5    13 ar  
    13     6    11 ar  
    14     6    12 ar  
    15     6    30 1   
    16     7    11 ar  
    17     7    31 1   
    18     8    21 1   
    19     8    22 1   
    20     8    43 2   
    21     9    21 1   
    22     9    27 1   
    23     9    28 2   
    24    10    19 2   
    25    10    32 1   
    26    11    33 1   
    27    12    13 ar  
    28    12    34 1   
    29    15    19 1   
    30    15    42 1   
    31    16    42 2   
    32    17    18 1   
    33    17    35 1   
    34    17    42 1   
    35    18    36 1   
    36    18    37 1   
    37    18    38 1   
    38    19    39 1   
    39    20    21 1   
    40    22    23 1   
    41    22    40 1   
    42    22    41 1   
    43    23    27 2   
    44    23    44 1   
    45    24    44 1   
    46    25    44 1   
    47    26    44 1   
@<TRIPOS>SUBSTRUCTURE
     1 UV5         1 TEMP              0 ****  ****    0 ROOT
