@<TRIPOS>MOLECULE
UV6
   52    54     1     0     0
SMALL
abcg2


@<TRIPOS>ATOM
      1 C5         176.6880   170.0560   161.5500 c6         1 UV6      -0.109400
      2 C6         176.6480   168.9800   162.6070 c6         1 UV6       0.406300
      3 C8         184.9430   168.9360   164.6400 c          1 UV6       0.610100
      4 C13        178.9720   168.6430   162.2690 ca         1 UV6       0.188100
      5 C17        177.5860   169.6310   160.3920 c6         1 UV6      -0.000400
      6 C1         185.3460   170.3590   164.9300 c3         1 UV6      -0.181100
      7 C10        184.6970   167.2610   162.8530 c6         1 UV6       0.048700
      8 C11        179.9750   168.8040   160.1210 ca         1 UV6      -0.041000
      9 C12        178.8640   169.0230   160.9270 ca         1 UV6      -0.190300
     10 C14        180.1540   168.1100   162.7740 ca         1 UV6      -0.181000
     11 C18        177.8310   170.8110   159.4570 c3         1 UV6      -0.082100
     12 C2         181.1590   168.2580   160.5940 ca         1 UV6      -0.218000
     13 C15        185.8850   166.5550   162.1960 c6         1 UV6       0.120300
     14 C3         185.4820   165.1140   161.9020 c6         1 UV6       0.160300
     15 C4         184.0490   165.0510   161.3370 c6         1 UV6       0.165300
     16 C7         183.0620   164.3790   162.2900 c3         1 UV6       0.135600
     17 C9         181.2520   167.9280   161.9430 ca         1 UV6       0.172100
     18 CAA        183.5680   167.3590   161.8250 c6         1 UV6       0.373300
     19 N9         185.0370   168.5680   163.3430 ns         1 UV6      -0.514900
     20 O1         184.5610   168.1810   165.5200 o          1 UV6      -0.583100
     21 O2         187.0080   166.5160   163.0370 oh         1 UV6      -0.650000
     22 O3         186.3550   164.5020   160.9830 oh         1 UV6      -0.709000
     23 O5         183.5910   166.3220   160.9020 os         1 UV6      -0.456000
     24 O6         175.8260   169.3620   163.6400 oh         1 UV6      -0.633000
     25 O7         177.9560   168.7830   163.1480 os         1 UV6      -0.390100
     26 OP3        182.3590   167.4180   162.5400 os         1 UV6      -0.365100
     27 H1         177.0550   170.9860   161.9970 hc         1 UV6       0.068700
     28 H2         175.6770   170.2450   161.1830 hc         1 UV6       0.068700
     29 H3         176.3290   168.0250   162.1610 h2         1 UV6       0.030700
     30 H4         177.0550   168.8580   159.8240 hc         1 UV6       0.051700
     31 H5         184.4980   170.8940   165.3570 hc         1 UV6       0.062367
     32 H6         186.1410   170.3640   165.6750 hc         1 UV6       0.062367
     33 H7         185.6920   170.9050   164.0540 hc         1 UV6       0.062367
     34 H8         184.3710   166.6730   163.7150 h1         1 UV6       0.118700
     35 H9         179.9220   169.0620   159.0710 ha         1 UV6       0.110000
     36 H10        180.2170   167.8400   163.8210 ha         1 UV6       0.143000
     37 H11        176.8800   171.2380   159.1340 hc         1 UV6       0.037700
     38 H12        178.3980   171.5950   159.9610 hc         1 UV6       0.037700
     39 H13        178.3760   170.5220   158.5590 hc         1 UV6       0.037700
     40 H14        181.9710   168.0990   159.8990 ha         1 UV6       0.129000
     41 H15        186.1250   167.0600   161.2480 h1         1 UV6       0.048700
     42 H16        185.4990   164.5760   162.8620 h1         1 UV6       0.063700
     43 H17        184.0770   164.4480   160.4250 h1         1 UV6       0.113700
     44 H18        182.0490   164.4780   161.8780 h1         1 UV6       0.039700
     45 H19        183.0650   164.8690   163.2700 h1         1 UV6       0.039700
     46 H20        183.6920   168.2760   161.2370 h2         1 UV6       0.069700
     47 H21        185.3480   169.2540   162.6710 hn         1 UV6       0.307500
     48 H22        187.4030   167.3930   163.0690 ho         1 UV6       0.450000
     49 H23        187.2350   164.4810   161.3750 ho         1 UV6       0.518000
     50 H24        182.9850   162.6320   163.1300 ho         1 UV6       0.509000
     51 H25        175.6090   168.5970   164.1840 ho         1 UV6       0.462000
     52 O4         183.4550   163.0310   162.3920 oh         1 UV6      -0.720000
@<TRIPOS>BOND
     1     1     2 1   
     2     1     5 1   
     3     1    27 1   
     4     1    28 1   
     5     2    24 1   
     6     2    25 1   
     7     2    29 1   
     8     3     6 1   
     9     3    19 1   
    10     3    20 2   
    11     4     9 ar  
    12     4    10 ar  
    13     4    25 1   
    14     5     9 1   
    15     5    11 1   
    16     5    30 1   
    17     6    31 1   
    18     6    32 1   
    19     6    33 1   
    20     7    13 1   
    21     7    18 1   
    22     7    19 1   
    23     7    34 1   
    24     8     9 ar  
    25     8    12 ar  
    26     8    35 1   
    27    10    17 ar  
    28    10    36 1   
    29    11    37 1   
    30    11    38 1   
    31    11    39 1   
    32    12    17 ar  
    33    12    40 1   
    34    13    14 1   
    35    13    21 1   
    36    13    41 1   
    37    14    15 1   
    38    14    22 1   
    39    14    42 1   
    40    15    16 1   
    41    15    23 1   
    42    15    43 1   
    43    16    44 1   
    44    16    45 1   
    45    16    52 1   
    46    17    26 1   
    47    18    23 1   
    48    18    26 1   
    49    18    46 1   
    50    19    47 1   
    51    21    48 1   
    52    22    49 1   
    53    24    51 1   
    54    50    52 1   
@<TRIPOS>SUBSTRUCTURE
     1 UV6         1 TEMP              0 ****  ****    0 ROOT
