@<TRIPOS>MOLECULE
UV6
   52    54     1     0     0
SMALL
No Charge or Current Charge


@<TRIPOS>ATOM
      1 C5         176.4210   169.2700   161.5470 c6         1 UV6      -0.109400
      2 C6         176.5170   167.9410   162.3070 c6         1 UV6       0.406300
      3 C8         185.7020   169.8270   164.0530 c          1 UV6       0.610100
      4 C13        178.9230   168.1710   162.3190 ca         1 UV6       0.188100
      5 C17        177.5510   169.3460   160.4950 c6         1 UV6      -0.000400
      6 C1         186.8250   170.8470   163.9480 c3         1 UV6      -0.181100
      7 C10        184.9500   167.5300   163.2710 c6         1 UV6       0.048700
      8 C11        180.1150   169.1430   160.4360 ca         1 UV6      -0.041000
      9 C12        178.8950   168.8850   161.0960 ca         1 UV6      -0.190300
     10 C14        180.1420   167.7740   162.8830 ca         1 UV6      -0.181000
     11 C18        177.6100   170.7670   159.8650 c3         1 UV6      -0.082100
     12 C2         181.3340   168.7300   161.0000 ca         1 UV6      -0.218000
     13 C15        185.7070   166.2120   162.9190 c6         1 UV6       0.120300
     14 C3         184.6960   165.1080   162.5100 c6         1 UV6       0.160300
     15 C4         183.9140   165.5450   161.2250 c6         1 UV6       0.165300
     16 C7         182.4300   165.0410   161.1790 c3         1 UV6       0.135600
     17 C9         181.3520   168.0480   162.2340 ca         1 UV6       0.172100
     18 CAA        183.8030   167.8180   162.2390 c6         1 UV6       0.373300
     19 N9         185.9100   168.6600   163.3540 ns         1 UV6      -0.514900
     20 O1         184.6880   170.0250   164.7050 o          1 UV6      -0.583100
     21 O2         186.4940   165.7660   164.0400 oh         1 UV6      -0.650000
     22 O3         185.3950   163.8610   162.3360 oh         1 UV6      -0.709000
     23 O5         183.9480   166.9960   161.0510 os         1 UV6      -0.456000
     24 O6         175.5090   167.8570   163.2980 oh         1 UV6      -0.633000
     25 O7         177.7650   167.8590   162.9990 os         1 UV6      -0.390100
     26 OP3        182.5120   167.6160   162.8440 os         1 UV6      -0.365100
     27 H1         176.5060   170.1030   162.2580 hc         1 UV6       0.068700
     28 H2         175.4400   169.3580   161.0620 hc         1 UV6       0.068700
     29 H3         176.4300   167.0980   161.6040 h2         1 UV6       0.030700
     30 H4         177.2980   168.6590   159.6750 hc         1 UV6       0.051700
     31 H5         186.6200   171.7610   164.5170 hc         1 UV6       0.062367
     32 H6         187.7650   170.3770   164.2600 hc         1 UV6       0.062367
     33 H7         187.0130   171.0630   162.8900 hc         1 UV6       0.062367
     34 H8         184.4800   167.4050   164.2570 h1         1 UV6       0.118700
     35 H9         180.1310   169.6600   159.4800 ha         1 UV6       0.110000
     36 H10        180.1480   167.2410   163.8280 ha         1 UV6       0.143000
     37 H11        176.6170   171.0920   159.5340 hc         1 UV6       0.037700
     38 H12        177.9790   171.5060   160.5860 hc         1 UV6       0.037700
     39 H13        178.2620   170.7990   158.9850 hc         1 UV6       0.037700
     40 H14        182.2500   168.9490   160.4600 ha         1 UV6       0.129000
     41 H15        186.3630   166.4070   162.0570 h1         1 UV6       0.048700
     42 H16        183.9700   165.0070   163.3320 h1         1 UV6       0.063700
     43 H17        184.4210   165.1110   160.3520 h1         1 UV6       0.113700
     44 H18        181.9270   165.5440   160.3420 h1         1 UV6       0.039700
     45 H19        181.9210   165.3490   162.1010 h1         1 UV6       0.039700
     46 H20        183.8810   168.8760   161.9480 h2         1 UV6       0.069700
     47 H21        186.7710   168.6070   162.8200 hn         1 UV6       0.307500
     48 H22        187.0120   166.5410   164.3540 ho         1 UV6       0.450000
     49 H23        186.1110   163.8970   163.0170 ho         1 UV6       0.518000
     50 H24        181.3550   163.3970   161.0020 ho         1 UV6       0.509000
     51 H25        175.8810   167.2450   163.9660 ho         1 UV6       0.462000
     52 O4         182.3170   163.6130   161.0330 oh         1 UV6      -0.720000
@<TRIPOS>BOND
     1     1     2 1   
     2     1     5 1   
     3     1    27 1   
     4     1    28 1   
     5     2    24 1   
     6     2    25 1   
     7     2    29 1   
     8     3     6 1   
     9     3    19 1   
    10     3    20 2   
    11     4     9 ar  
    12     4    10 ar  
    13     4    25 1   
    14     5     9 1   
    15     5    11 1   
    16     5    30 1   
    17     6    31 1   
    18     6    32 1   
    19     6    33 1   
    20     7    13 1   
    21     7    18 1   
    22     7    19 1   
    23     7    34 1   
    24     8     9 ar  
    25     8    12 ar  
    26     8    35 1   
    27    10    17 ar  
    28    10    36 1   
    29    11    37 1   
    30    11    38 1   
    31    11    39 1   
    32    12    17 ar  
    33    12    40 1   
    34    13    14 1   
    35    13    21 1   
    36    13    41 1   
    37    14    15 1   
    38    14    22 1   
    39    14    42 1   
    40    15    16 1   
    41    15    23 1   
    42    15    43 1   
    43    16    44 1   
    44    16    45 1   
    45    16    52 1   
    46    17    26 1   
    47    18    23 1   
    48    18    26 1   
    49    18    46 1   
    50    19    47 1   
    51    21    48 1   
    52    22    49 1   
    53    24    51 1   
    54    50    52 1   
@<TRIPOS>SUBSTRUCTURE
     1 UV6         1 TEMP              0 ****  ****    0 ROOT
