@<TRIPOS>MOLECULE
UV7
   19    19     1     0     0
SMALL
bcc


@<TRIPOS>ATOM
      1 N1         -18.1880    15.6570    24.9480 na         1 UV7      -0.004600
      2 C4         -18.3700    14.3450    25.1610 cc         1 UV7      -0.100300
      3 C5         -19.1770    15.5650    26.7940 cd         1 UV7       0.310200
      4 N          -20.8140    12.5710    26.6700 ns         1 UV7      -0.571900
      5 C          -22.5230    11.6580    25.2300 c3         1 UV7      -0.180100
      6 O          -20.1820    11.6030    24.7370 o          1 UV7      -0.617100
      7 C1         -21.0680    11.9370    25.5150 c          1 UV7       0.669100
      8 C3         -19.0190    14.2310    26.3720 cd         1 UV7      -0.310600
      9 N2         -18.6680    16.4180    25.9230 nc         1 UV7      -0.527800
     10 H1         -17.7360    16.0840    24.1550 hn         1 UV7       0.320700
     11 H2         -18.0370    13.5980    24.4590 h4         1 UV7       0.187000
     12 H3         -19.6400    15.9220    27.7020 h4         1 UV7       0.032100
     13 H4         -21.5850    12.8760    27.2410 hn         1 UV7       0.311500
     14 H5         -22.8350    12.2330    24.3570 hc         1 UV7       0.059033
     15 H6         -22.6510    10.6040    24.9860 hc         1 UV7       0.059033
     16 H7         -23.1850    11.9080    26.0560 hc         1 UV7       0.059033
     17 H8         -18.7860    12.1680    26.8710 h1         1 UV7       0.056700
     18 H9         -19.4970    13.1430    28.1370 h1         1 UV7       0.056700
     19 C2         -19.4810    12.9870    27.0590 c3         1 UV7       0.191300
@<TRIPOS>BOND
     1     1     2 1   
     2     1     9 1   
     3     1    10 1   
     4     2     8 2   
     5     2    11 1   
     6     3     8 1   
     7     3     9 2   
     8     3    12 1   
     9     4     7 1   
    10     4    13 1   
    11     4    19 1   
    12     5     7 1   
    13     5    14 1   
    14     5    15 1   
    15     5    16 1   
    16     6     7 2   
    17     8    19 1   
    18    17    19 1   
    19    18    19 1   
@<TRIPOS>SUBSTRUCTURE
     1 UV7         1 TEMP              0 ****  ****    0 ROOT
