@<TRIPOS>MOLECULE
UV7
   19    19     1     0     0
SMALL
No Charge or Current Charge


@<TRIPOS>ATOM
      1 N1         -18.1970    15.7100    24.9280 na         1 UV7      -0.004200
      2 C4         -18.5960    14.3840    25.0790 cc         1 UV7      -0.133000
      3 C5         -18.8750    15.6050    26.9260 cd         1 UV7       0.244900
      4 N          -20.8670    12.7090    26.5200 ns         1 UV7      -0.504900
      5 C          -22.4740    11.4900    25.1440 c3         1 UV7      -0.180100
      6 O          -20.1090    11.0220    25.1840 o          1 UV7      -0.617100
      7 C1         -21.0360    11.7000    25.6020 c          1 UV7       0.602100
      8 C3         -19.0360    14.3160    26.3720 cd         1 UV7      -0.245300
      9 N2         -18.3670    16.4730    26.0720 nc         1 UV7      -0.527800
     10 H1         -17.8110    16.1190    24.0760 hn         1 UV7       0.371000
     11 H2         -18.5350    13.6420    24.2900 h4         1 UV7       0.169000
     12 H3         -19.1150    15.9310    27.9310 h4         1 UV7       0.032100
     13 H4         -21.6970    13.2170    26.7980 hn         1 UV7       0.311500
     14 H5         -22.8650    12.4360    24.7510 hc         1 UV7       0.059033
     15 H6         -22.5710    10.6780    24.4150 hc         1 UV7       0.059033
     16 H7         -23.1080    11.3230    26.0220 hc         1 UV7       0.059033
     17 H8         -18.8660    12.2860    27.0260 h1         1 UV7       0.056700
     18 H9         -19.7310    13.3520    28.1500 h1         1 UV7       0.056700
     19 C2         -19.5850    13.1140    27.0880 c3         1 UV7       0.191300
@<TRIPOS>BOND
     1     1     2 1   
     2     1     9 1   
     3     1    10 1   
     4     2     8 2   
     5     2    11 1   
     6     3     8 1   
     7     3     9 2   
     8     3    12 1   
     9     4     7 1   
    10     4    13 1   
    11     4    19 1   
    12     5     7 1   
    13     5    14 1   
    14     5    15 1   
    15     5    16 1   
    16     6     7 2   
    17     8    19 1   
    18    17    19 1   
    19    18    19 1   
@<TRIPOS>SUBSTRUCTURE
     1 UV7         1 TEMP              0 ****  ****    0 ROOT
