@<TRIPOS>MOLECULE
UV8
   53    55     1     0     0
SMALL
No Charge or Current Charge


@<TRIPOS>ATOM
      1 O01          7.1590     2.2670    -0.2000 o          1 UV8      -0.713000
      2 C02          6.7740     1.1650     0.1660 c          1 UV8       0.713600
      3 O03          7.5330     0.3010     0.5810 o          1 UV8      -0.713000
      4 C04          5.2870     0.8560     0.1020 ca         1 UV8      -0.125600
      5 C05          4.3650     1.8170    -0.3720 ca         1 UV8      -0.081000
      6 C06          2.9910     1.5270    -0.4280 ca         1 UV8      -0.127000
      7 C07          2.5030     0.2750    -0.0090 ca         1 UV8      -0.077800
      8 C08          1.0450    -0.0270    -0.0870 ce         1 UV8      -0.111200
      9 C09         -0.0180     0.7100     0.3520 cf         1 UV8      -0.086400
     10 C10          0.1840     2.0090     1.1270 c3         1 UV8      -0.046900
     11 C11         -1.4350     0.2830     0.2540 ca         1 UV8      -0.028800
     12 C12         -1.7750    -1.0760     0.3570 ca         1 UV8      -0.106000
     13 C13         -3.1130    -1.4860     0.2780 ca         1 UV8      -0.114000
     14 C14         -4.1590    -0.5530     0.0910 ca         1 UV8      -0.072300
     15 C15         -3.8210     0.8210    -0.0670 ca         1 UV8      -0.063300
     16 C16         -2.4670     1.2180     0.0380 ca         1 UV8      -0.109000
     17 C17         -4.9290     1.9060    -0.3260 c6         1 UV8       0.003300
     18 C18         -5.0460     2.7860     0.9580 c3         1 UV8      -0.080100
     19 C19         -4.5130     2.8600    -1.4920 c3         1 UV8      -0.080100
     20 C20         -6.3420     1.3110    -0.6920 c6         1 UV8      -0.065400
     21 C21         -6.6640     0.0970     0.1960 c6         1 UV8      -0.065400
     22 C22         -5.6310    -1.0570     0.0200 c6         1 UV8       0.004300
     23 C23         -5.9260    -2.1150     1.1330 c3         1 UV8      -0.079600
     24 C24         -5.8370    -1.7730    -1.3520 c3         1 UV8      -0.079600
     25 C25          3.4180    -0.6920     0.4560 ca         1 UV8      -0.015900
     26 Br           2.8170    -2.4150     1.0480 br         1 UV8      -0.166100
     27 C27          4.7930    -0.4030     0.5150 ca         1 UV8      -0.065000
     28 H2           4.7110     2.7940    -0.7020 ha         1 UV8       0.133000
     29 H3           2.3040     2.2780    -0.8090 ha         1 UV8       0.095000
     30 H4           0.8310    -0.9740    -0.5810 ha         1 UV8       0.177000
     31 H7           0.1900     2.8750     0.4550 hc         1 UV8       0.039700
     32 H8          -0.6060     2.1680     1.8710 hc         1 UV8       0.039700
     33 H9           1.1320     2.0100     1.6780 hc         1 UV8       0.039700
     34 H10         -1.0050    -1.8240     0.5230 ha         1 UV8       0.121000
     35 H11         -3.3260    -2.5480     0.3610 ha         1 UV8       0.104000
     36 H12         -2.2080     2.2670    -0.0580 ha         1 UV8       0.111000
     37 H13         -4.1040     3.3010     1.1830 hc         1 UV8       0.033367
     38 H14         -5.8200     3.5560     0.8510 hc         1 UV8       0.033367
     39 H15         -5.2980     2.1830     1.8380 hc         1 UV8       0.033367
     40 H16         -4.2910     2.2930    -2.4040 hc         1 UV8       0.033367
     41 H17         -5.3180     3.5660    -1.7340 hc         1 UV8       0.033367
     42 H18         -3.6290     3.4620    -1.2540 hc         1 UV8       0.033367
     43 H19         -7.1240     2.0750    -0.5800 hc         1 UV8       0.038200
     44 H20         -6.3670     1.0110    -1.7470 hc         1 UV8       0.038200
     45 H21         -6.6950     0.4130     1.2470 hc         1 UV8       0.037700
     46 H22         -7.6760    -0.2640    -0.0340 hc         1 UV8       0.037700
     47 H23         -5.6690    -1.7260     2.1250 hc         1 UV8       0.032367
     48 H24         -6.9890    -2.3840     1.1530 hc         1 UV8       0.032367
     49 H25         -5.3710    -3.0490     0.9900 hc         1 UV8       0.032367
     50 H26         -5.1920    -2.6550    -1.4460 hc         1 UV8       0.032367
     51 H27         -6.8730    -2.1110    -1.4790 hc         1 UV8       0.032367
     52 H28         -5.5970    -1.1130    -2.1940 hc         1 UV8       0.032367
     53 H29          5.4760    -1.1650     0.8840 ha         1 UV8       0.148000
@<TRIPOS>BOND
     1     1     2 1   
     2     2     3 1   
     3     2     4 1   
     4     4     5 ar  
     5     4    27 ar  
     6     5     6 ar  
     7     5    28 1   
     8     6     7 ar  
     9     6    29 1   
    10     7     8 1   
    11     7    25 ar  
    12     8     9 2   
    13     8    30 1   
    14     9    10 1   
    15     9    11 1   
    16    10    31 1   
    17    10    32 1   
    18    10    33 1   
    19    11    12 ar  
    20    11    16 ar  
    21    12    13 ar  
    22    12    34 1   
    23    13    14 ar  
    24    13    35 1   
    25    14    15 ar  
    26    14    22 1   
    27    15    16 ar  
    28    15    17 1   
    29    16    36 1   
    30    17    18 1   
    31    17    19 1   
    32    17    20 1   
    33    18    37 1   
    34    18    38 1   
    35    18    39 1   
    36    19    40 1   
    37    19    41 1   
    38    19    42 1   
    39    20    21 1   
    40    20    43 1   
    41    20    44 1   
    42    21    22 1   
    43    21    45 1   
    44    21    46 1   
    45    22    23 1   
    46    22    24 1   
    47    23    47 1   
    48    23    48 1   
    49    23    49 1   
    50    24    50 1   
    51    24    51 1   
    52    24    52 1   
    53    25    26 1   
    54    25    27 ar  
    55    27    53 1   
@<TRIPOS>SUBSTRUCTURE
     1 UV8         1 TEMP              0 ****  ****    0 ROOT
