@<TRIPOS>MOLECULE
UV8
   53    55     1     0     0
SMALL
abcg2


@<TRIPOS>ATOM
      1 O01          7.0110     2.2290    -0.4020 o          1 UV8      -0.713000
      2 C02          6.6650     1.1270     0.0610 c          1 UV8       0.713600
      3 O03          7.4050     0.2410     0.5280 o          1 UV8      -0.713000
      4 C04          5.1690     0.8310     0.0560 ca         1 UV8      -0.125600
      5 C05          4.2530     1.7470    -0.4510 ca         1 UV8      -0.081000
      6 C06          2.8970     1.4660    -0.4560 ca         1 UV8      -0.127000
      7 C07          2.3920     0.2650     0.0510 ca         1 UV8      -0.077800
      8 C08          0.9580    -0.0460     0.0020 ce         1 UV8      -0.111200
      9 C09         -0.0450     0.7390     0.4240 cf         1 UV8      -0.086400
     10 C10          0.1620     2.0870     1.0520 c3         1 UV8      -0.046900
     11 C11         -1.4450     0.2770     0.2890 ca         1 UV8      -0.028800
     12 C12         -1.7910    -1.0750     0.3480 ca         1 UV8      -0.106000
     13 C13         -3.1100    -1.4600     0.2340 ca         1 UV8      -0.114000
     14 C14         -4.1490    -0.5400     0.0580 ca         1 UV8      -0.072300
     15 C15         -3.8160     0.8170    -0.0380 ca         1 UV8      -0.063300
     16 C16         -2.4770     1.1900     0.1060 ca         1 UV8      -0.109000
     17 C17         -4.8540     1.9100    -0.2660 c6         1 UV8       0.003300
     18 C18         -5.0670     2.6850     1.0410 c3         1 UV8      -0.080100
     19 C19         -4.3950     2.8940    -1.3490 c3         1 UV8      -0.080100
     20 C20         -6.1750     1.2930    -0.7370 c6         1 UV8      -0.065400
     21 C21         -6.5770     0.0900     0.0920 c6         1 UV8      -0.065400
     22 C22         -5.5760    -1.0630    -0.0310 c6         1 UV8       0.004300
     23 C23         -5.8680    -2.0510     1.1050 c3         1 UV8      -0.079600
     24 C24         -5.7620    -1.7840    -1.3740 c3         1 UV8      -0.079600
     25 C25          3.3310    -0.6410     0.5520 ca         1 UV8      -0.015900
     26 BR           2.7400    -2.2870     1.2850 br         1 UV8      -0.166100
     27 C27          4.6900    -0.3740     0.5610 ca         1 UV8      -0.065000
     28 H2           4.6040     2.6860    -0.8560 ha         1 UV8       0.133000
     29 H3           2.2070     2.1830    -0.8810 ha         1 UV8       0.095000
     30 H4           0.7080    -1.0070    -0.4370 ha         1 UV8       0.177000
     31 H7          -0.0240     2.8960     0.3410 hc         1 UV8       0.039700
     32 H8          -0.5250     2.2340     1.8860 hc         1 UV8       0.039700
     33 H9           1.1770     2.2130     1.4240 hc         1 UV8       0.039700
     34 H10         -1.0340    -1.8310     0.5190 ha         1 UV8       0.121000
     35 H11         -3.3400    -2.5160     0.2990 ha         1 UV8       0.104000
     36 H12         -2.2300     2.2440     0.0610 ha         1 UV8       0.111000
     37 H13         -4.1370     3.1350     1.3920 hc         1 UV8       0.033367
     38 H14         -5.7890     3.4910     0.8890 hc         1 UV8       0.033367
     39 H15         -5.4440     2.0480     1.8430 hc         1 UV8       0.033367
     40 H16         -4.1900     2.3800    -2.2890 hc         1 UV8       0.033367
     41 H17         -5.1840     3.6270    -1.5340 hc         1 UV8       0.033367
     42 H18         -3.5020     3.4510    -1.0660 hc         1 UV8       0.033367
     43 H19         -6.9550     2.0580    -0.7050 hc         1 UV8       0.038200
     44 H20         -6.0790     1.0010    -1.7880 hc         1 UV8       0.038200
     45 H21         -6.6640     0.3810     1.1440 hc         1 UV8       0.037700
     46 H22         -7.5670    -0.2670    -0.2040 hc         1 UV8       0.037700
     47 H23         -5.6840    -1.5950     2.0800 hc         1 UV8       0.032367
     48 H24         -6.9180    -2.3520     1.0720 hc         1 UV8       0.032367
     49 H25         -5.2700    -2.9610     1.0440 hc         1 UV8       0.032367
     50 H26         -5.0450    -2.5980    -1.4870 hc         1 UV8       0.032367
     51 H27         -6.7660    -2.2100    -1.4420 hc         1 UV8       0.032367
     52 H28         -5.6280    -1.1100    -2.2220 hc         1 UV8       0.032367
     53 H29          5.3910    -1.0940     0.9610 ha         1 UV8       0.148000
@<TRIPOS>BOND
     1     1     2 1   
     2     2     3 1   
     3     2     4 1   
     4     4     5 ar  
     5     4    27 ar  
     6     5     6 ar  
     7     5    28 1   
     8     6     7 ar  
     9     6    29 1   
    10     7     8 1   
    11     7    25 ar  
    12     8     9 2   
    13     8    30 1   
    14     9    10 1   
    15     9    11 1   
    16    10    31 1   
    17    10    32 1   
    18    10    33 1   
    19    11    12 ar  
    20    11    16 ar  
    21    12    13 ar  
    22    12    34 1   
    23    13    14 ar  
    24    13    35 1   
    25    14    15 ar  
    26    14    22 1   
    27    15    16 ar  
    28    15    17 1   
    29    16    36 1   
    30    17    18 1   
    31    17    19 1   
    32    17    20 1   
    33    18    37 1   
    34    18    38 1   
    35    18    39 1   
    36    19    40 1   
    37    19    41 1   
    38    19    42 1   
    39    20    21 1   
    40    20    43 1   
    41    20    44 1   
    42    21    22 1   
    43    21    45 1   
    44    21    46 1   
    45    22    23 1   
    46    22    24 1   
    47    23    47 1   
    48    23    48 1   
    49    23    49 1   
    50    24    50 1   
    51    24    51 1   
    52    24    52 1   
    53    25    26 1   
    54    25    27 ar  
    55    27    53 1   
@<TRIPOS>SUBSTRUCTURE
     1 UV8         1 TEMP              0 ****  ****    0 ROOT
