@<TRIPOS>MOLECULE
UV9
   30    30     1     0     0
SMALL
No Charge or Current Charge


@<TRIPOS>ATOM
      1 N1          29.5030   -11.5700   -12.4900 n8         1 UV9      -0.980200
      2 C7          31.5420   -12.3130   -11.1460 c          1 UV9       0.560100
      3 C8          30.9830   -15.6480   -14.7500 c3         1 UV9      -0.082600
      4 C1          29.9200   -14.5010   -14.7560 c6         1 UV9      -0.049000
      5 C5          29.9320   -14.0320   -12.2020 c6         1 UV9      -0.056900
      6 C6          29.0950   -14.4870   -13.4330 c6         1 UV9      -0.059400
      7 C4          30.5800   -12.6160   -12.3780 c6         1 UV9       0.101200
      8 C3          31.4190   -12.6620   -13.7010 c6         1 UV9      -0.056900
      9 C2          30.5930   -13.1070   -14.9430 c6         1 UV9      -0.059400
     10 O           31.3960   -11.3480   -10.4090 o          1 UV9      -0.622100
     11 N           32.5670   -13.1680   -10.9110 nt         1 UV9      -0.602000
     12 H1          29.0120   -11.5190   -11.5900 hn         1 UV9       0.407000
     13 H2          29.9550   -10.6500   -12.5430 hn         1 UV9       0.407000
     14 H4          31.7100   -15.5470   -13.9370 hc         1 UV9       0.031867
     15 H5          30.5080   -16.6300   -14.6350 hc         1 UV9       0.031867
     16 H6          31.5520   -15.6680   -15.6880 hc         1 UV9       0.031867
     17 H7          29.2880   -14.0300   -11.3120 hc         1 UV9       0.040450
     18 H8          30.7040   -14.7850   -11.9960 hc         1 UV9       0.040450
     19 H9          28.2280   -13.8210   -13.5440 hc         1 UV9       0.048200
     20 H10         28.6790   -15.4860   -13.2410 hc         1 UV9       0.048200
     21 H11         32.2810   -13.3320   -13.5860 hc         1 UV9       0.040450
     22 H12         31.8500   -11.6700   -13.8940 hc         1 UV9       0.040450
     23 H13         31.2450   -13.1210   -15.8270 hc         1 UV9       0.048200
     24 H14         29.8250   -12.3500   -15.1530 hc         1 UV9       0.048200
     25 H15         33.1870   -12.9920   -10.1350 hn         1 UV9       0.314500
     26 H16         32.7070   -13.9710   -11.5060 hn         1 UV9       0.314500
     27 H17         28.4720   -15.7580   -15.8560 hc         1 UV9       0.031867
     28 H18         28.1860   -14.0240   -16.0400 hc         1 UV9       0.031867
     29 H19         29.5180   -14.7950   -16.9100 hc         1 UV9       0.031867
     30 C           28.9710   -14.7860   -15.9590 c3         1 UV9      -0.082600
@<TRIPOS>BOND
     1     1     7 1   
     2     1    12 1   
     3     1    13 1   
     4     2     7 1   
     5     2    10 2   
     6     2    11 1   
     7     3     4 1   
     8     3    14 1   
     9     3    15 1   
    10     3    16 1   
    11     4     6 1   
    12     4     9 1   
    13     4    30 1   
    14     5     6 1   
    15     5     7 1   
    16     5    17 1   
    17     5    18 1   
    18     6    19 1   
    19     6    20 1   
    20     7     8 1   
    21     8     9 1   
    22     8    21 1   
    23     8    22 1   
    24     9    23 1   
    25     9    24 1   
    26    11    25 1   
    27    11    26 1   
    28    27    30 1   
    29    28    30 1   
    30    29    30 1   
@<TRIPOS>SUBSTRUCTURE
     1 UV9         1 TEMP              0 ****  ****    0 ROOT
