@<TRIPOS>MOLECULE
UV9
   30    30     1     0     0
SMALL
abcg2


@<TRIPOS>ATOM
      1 N1          29.5400   -11.6450   -12.5010 n8         1 UV9      -0.980200
      2 C7          31.5700   -12.3180   -11.2550 c          1 UV9       0.560100
      3 C8          31.0030   -15.5880   -14.7080 c3         1 UV9      -0.082600
      4 C1          29.9340   -14.4850   -14.7400 c6         1 UV9      -0.049000
      5 C5          29.9340   -14.0350   -12.2120 c6         1 UV9      -0.056900
      6 C6          29.1220   -14.4730   -13.4310 c6         1 UV9      -0.059400
      7 C4          30.5930   -12.6560   -12.4110 c6         1 UV9       0.101200
      8 C3          31.4090   -12.6460   -13.7250 c6         1 UV9      -0.056900
      9 C2          30.5850   -13.1020   -14.9280 c6         1 UV9      -0.059400
     10 O           31.5500   -11.2170   -10.7050 o          1 UV9      -0.622100
     11 N           32.4630   -13.2620   -10.9030 nt         1 UV9      -0.602000
     12 H1          28.9460   -11.7050   -11.6800 hn         1 UV9       0.407000
     13 H2          29.9650   -10.7250   -12.4620 hn         1 UV9       0.407000
     14 H4          31.7170   -15.4570   -13.8930 hc         1 UV9       0.031867
     15 H5          30.5350   -16.5680   -14.5850 hc         1 UV9       0.031867
     16 H6          31.5670   -15.5970   -15.6440 hc         1 UV9       0.031867
     17 H7          29.2910   -13.9930   -11.3280 hc         1 UV9       0.040450
     18 H8          30.6960   -14.7860   -12.0030 hc         1 UV9       0.040450
     19 H9          28.2710   -13.8000   -13.5570 hc         1 UV9       0.048200
     20 H10         28.7130   -15.4720   -13.2490 hc         1 UV9       0.048200
     21 H11         32.2820   -13.2890   -13.6060 hc         1 UV9       0.040450
     22 H12         31.7860   -11.6330   -13.8930 hc         1 UV9       0.040450
     23 H13         31.2250   -13.1200   -15.8160 hc         1 UV9       0.048200
     24 H14         29.7970   -12.3700   -15.1190 hc         1 UV9       0.048200
     25 H15         33.1560   -13.0460   -10.2040 hn         1 UV9       0.314500
     26 H16         32.5230   -14.1510   -11.3680 hn         1 UV9       0.314500
     27 H17         28.5000   -15.7300   -15.8000 hc         1 UV9       0.031867
     28 H18         28.2110   -13.9940   -15.9730 hc         1 UV9       0.031867
     29 H19         29.5340   -14.7640   -16.8600 hc         1 UV9       0.031867
     30 C           28.9890   -14.7590   -15.9130 c3         1 UV9      -0.082600
@<TRIPOS>BOND
     1     1     7 1   
     2     1    12 1   
     3     1    13 1   
     4     2     7 1   
     5     2    10 2   
     6     2    11 1   
     7     3     4 1   
     8     3    14 1   
     9     3    15 1   
    10     3    16 1   
    11     4     6 1   
    12     4     9 1   
    13     4    30 1   
    14     5     6 1   
    15     5     7 1   
    16     5    17 1   
    17     5    18 1   
    18     6    19 1   
    19     6    20 1   
    20     7     8 1   
    21     8     9 1   
    22     8    21 1   
    23     8    22 1   
    24     9    23 1   
    25     9    24 1   
    26    11    25 1   
    27    11    26 1   
    28    27    30 1   
    29    28    30 1   
    30    29    30 1   
@<TRIPOS>SUBSTRUCTURE
     1 UV9         1 TEMP              0 ****  ****    0 ROOT
