@<TRIPOS>MOLECULE
UVA
   23    23     1     0     0
SMALL
No Charge or Current Charge


@<TRIPOS>ATOM
      1 C4         -22.6410    11.6740    25.1910 ca         1 UVA      -0.182000
      2 C5         -21.3710    12.2170    25.4380 ca         1 UVA       0.020000
      3 C6         -21.2080    13.2410    26.3970 ca         1 UVA      -0.355500
      4 C7         -18.9920    12.8740    28.0820 c3         1 UVA      -0.335100
      5 C          -22.9190    14.7590    29.3670 c3         1 UVA       0.203100
      6 O          -18.6920    13.5110    25.5590 o          1 UVA      -0.536500
      7 C1         -22.3270    13.7060    27.1150 ca         1 UVA       0.417000
      8 C2         -23.5930    13.1530    26.8570 ca         1 UVA      -0.211000
      9 C3         -23.7560    12.1410    25.9000 ca         1 UVA      -0.012000
     10 O1         -19.6260    15.2490    27.1850 o          1 UVA      -0.536500
     11 S          -19.5480    13.8650    26.6990 sy         1 UVA       1.062500
     12 H1         -22.7600    10.8870    24.4500 ha         1 UVA       0.122000
     13 H2         -20.5180    11.8310    24.8800 ha         1 UVA       0.138000
     14 H3         -19.6760    13.0440    28.9200 h1         1 UVA       0.103033
     15 H4         -19.0080    11.8230    27.7770 h1         1 UVA       0.103033
     16 H5         -17.9760    13.1880    28.3400 h1         1 UVA       0.103033
     17 H6         -21.3410    15.2370    28.0150 hn         1 UVA       0.510000
     18 H7         -22.5990    15.6380    29.9410 h1         1 UVA       0.041700
     19 H8         -24.0060    14.8210    29.2250 h1         1 UVA       0.041700
     20 H9         -22.6940    13.8600    29.9570 h1         1 UVA       0.041700
     21 H10        -24.4640    13.5130    27.3940 ha         1 UVA       0.117000
     22 H11        -24.7410    11.7220    25.7080 ha         1 UVA       0.113000
     23 N          -22.2210    14.7120    28.0700 nu         1 UVA      -0.967200
@<TRIPOS>BOND
     1     1     2 ar  
     2     1     9 ar  
     3     1    12 1   
     4     2     3 ar  
     5     2    13 1   
     6     3     7 ar  
     7     3    11 1   
     8     4    11 1   
     9     4    14 1   
    10     4    15 1   
    11     4    16 1   
    12     5    18 1   
    13     5    19 1   
    14     5    20 1   
    15     5    23 1   
    16     6    11 2   
    17     7     8 ar  
    18     7    23 1   
    19     8     9 ar  
    20     8    21 1   
    21     9    22 1   
    22    10    11 2   
    23    17    23 1   
@<TRIPOS>SUBSTRUCTURE
     1 UVA         1 TEMP              0 ****  ****    0 ROOT
