@<TRIPOS>MOLECULE
UVA
   23    23     1     0     0
SMALL
abcg2


@<TRIPOS>ATOM
      1 C4         -22.6530    11.7730    25.1650 ca         1 UVA      -0.182000
      2 C5         -21.4050    12.3280    25.3700 ca         1 UVA       0.020000
      3 C6         -21.1850    13.2070    26.4270 ca         1 UVA      -0.355500
      4 C7         -18.9190    12.8670    28.0260 c3         1 UVA      -0.335100
      5 C          -23.1020    14.8520    29.2200 c3         1 UVA       0.203100
      6 O          -18.7470    13.4670    25.4650 o          1 UVA      -0.536500
      7 C1         -22.2220    13.5700    27.3200 ca         1 UVA       0.417000
      8 C2         -23.4790    12.9800    27.0890 ca         1 UVA      -0.211000
      9 C3         -23.6820    12.1050    26.0400 ca         1 UVA      -0.012000
     10 O1         -19.5850    15.2160    27.0490 o          1 UVA      -0.536500
     11 S          -19.5380    13.8040    26.6470 sy         1 UVA       1.062500
     12 H1         -22.8200    11.0920    24.3420 ha         1 UVA       0.122000
     13 H2         -20.5900    12.0740    24.7070 ha         1 UVA       0.138000
     14 H3         -19.5760    13.0110    28.8830 h1         1 UVA       0.103033
     15 H4         -18.8780    11.8160    27.7540 h1         1 UVA       0.103033
     16 H5         -17.9210    13.2380    28.2550 h1         1 UVA       0.103033
     17 H6         -21.2380    15.0340    28.3100 hn         1 UVA       0.510000
     18 H7         -22.6870    15.5180    29.9710 h1         1 UVA       0.041700
     19 H8         -23.8800    15.3950    28.6740 h1         1 UVA       0.041700
     20 H9         -23.5710    14.0160    29.7400 h1         1 UVA       0.041700
     21 H10        -24.3100    13.2180    27.7390 ha         1 UVA       0.117000
     22 H11        -24.6670    11.6790    25.9020 ha         1 UVA       0.113000
     23 N          -22.0230    14.4060    28.3730 nu         1 UVA      -0.967200
@<TRIPOS>BOND
     1     1     2 ar  
     2     1     9 ar  
     3     1    12 1   
     4     2     3 ar  
     5     2    13 1   
     6     3     7 ar  
     7     3    11 1   
     8     4    11 1   
     9     4    14 1   
    10     4    15 1   
    11     4    16 1   
    12     5    18 1   
    13     5    19 1   
    14     5    20 1   
    15     5    23 1   
    16     6    11 2   
    17     7     8 ar  
    18     7    23 1   
    19     8     9 ar  
    20     8    21 1   
    21     9    22 1   
    22    10    11 2   
    23    17    23 1   
@<TRIPOS>SUBSTRUCTURE
     1 UVA         1 TEMP              0 ****  ****    0 ROOT
