@<TRIPOS>MOLECULE
UVB
   33    34     1     0     0
SMALL
No Charge or Current Charge


@<TRIPOS>ATOM
      1 C01        -21.3180   -21.2550    -4.2250 c          1 UVB       0.577500
      2 C02        -22.3150   -21.1180    -3.1040 ca         1 UVB      -0.150600
      3 C03        -23.3700   -22.0440    -2.9510 ca         1 UVB      -0.082000
      4 C04        -24.2940   -21.9050    -1.9010 ca         1 UVB      -0.032000
      5 C05        -24.1720   -20.8390    -0.9860 ca         1 UVB      -0.277500
      6 C09        -24.5410   -23.0320     1.3580 c6         1 UVB       0.193800
      7 C10        -24.0930   -23.8370     2.6160 c6         1 UVB       0.171300
      8 C12        -22.7560   -23.2820     3.1600 c6         1 UVB      -0.114400
      9 C13        -22.8680   -21.7560     3.3940 c6         1 UVB      -0.070400
     10 C14        -23.3400   -21.0250     2.1140 c6         1 UVB       0.193800
     11 C16        -23.1240   -19.9080    -1.1390 ca         1 UVB      -0.032000
     12 C17        -22.2010   -20.0500    -2.1900 ca         1 UVB      -0.082000
     13 N08        -24.6380   -21.5650     1.6260 n3         1 UVB      -0.724500
     14 O07        -26.6020   -21.3570     0.0300 o          1 UVB      -0.529000
     15 S06        -25.3550   -20.6620     0.3680 sy         1 UVB       1.155600
     16 H1         -20.5240   -20.4780    -4.2650 h4         1 UVB      -0.004800
     17 H4         -23.4780   -22.8740    -3.6470 ha         1 UVB       0.130000
     18 H5         -25.1010   -22.6300    -1.8030 ha         1 UVB       0.140000
     19 H6         -25.5140   -23.4320     1.0370 h1         1 UVB       0.067700
     20 H7         -23.8280   -23.2280     0.5440 h1         1 UVB       0.067700
     21 H8         -24.8630   -23.7040     3.3900 h1         1 UVB       0.050700
     22 H9         -22.4870   -23.7850     4.0980 hc         1 UVB       0.049700
     23 H10        -21.9460   -23.4860     2.4450 hc         1 UVB       0.049700
     24 H11        -21.8970   -21.3540     3.7140 hc         1 UVB       0.055700
     25 H12        -23.5750   -21.5550     4.2100 hc         1 UVB       0.055700
     26 H13        -22.5640   -21.1260     1.3400 h1         1 UVB       0.055200
     27 H14        -23.4250   -19.9540     2.3480 h1         1 UVB       0.055200
     28 H15        -23.0170   -19.0750    -0.4460 ha         1 UVB       0.140000
     29 H16        -21.3960   -19.3240    -2.2930 ha         1 UVB       0.130000
     30 O1         -21.3540   -22.1570    -5.0570 o          1 UVB      -0.500100
     31 O11        -23.9470   -25.2320     2.3090 oh         1 UVB      -0.659000
     32 O15        -25.3780   -19.2690     0.8290 o          1 UVB      -0.529000
     33 H17        -23.7070   -25.6820     3.1490 ho         1 UVB       0.449000
@<TRIPOS>BOND
     1     1     2 1   
     2     1    16 1   
     3     1    30 2   
     4     2     3 ar  
     5     2    12 ar  
     6     3     4 ar  
     7     3    17 1   
     8     4     5 ar  
     9     4    18 1   
    10     5    11 ar  
    11     5    15 1   
    12     6     7 1   
    13     6    13 1   
    14     6    19 1   
    15     6    20 1   
    16     7     8 1   
    17     7    21 1   
    18     7    31 1   
    19     8     9 1   
    20     8    22 1   
    21     8    23 1   
    22     9    10 1   
    23     9    24 1   
    24     9    25 1   
    25    10    13 1   
    26    10    26 1   
    27    10    27 1   
    28    11    12 ar  
    29    11    28 1   
    30    12    29 1   
    31    13    15 1   
    32    14    15 2   
    33    15    32 2   
    34    31    33 1   
@<TRIPOS>SUBSTRUCTURE
     1 UVB         1 TEMP              0 ****  ****    0 ROOT
