@<TRIPOS>MOLECULE
UVB
   33    34     1     0     0
SMALL
abcg2


@<TRIPOS>ATOM
      1 C01        -21.4410   -21.1200    -4.3030 c          1 UVB       0.577500
      2 C02        -22.3950   -21.0390    -3.1780 ca         1 UVB      -0.150600
      3 C03        -23.4120   -21.9810    -3.0310 ca         1 UVB      -0.082000
      4 C04        -24.2870   -21.8910    -1.9650 ca         1 UVB      -0.032000
      5 C05        -24.1360   -20.8530    -1.0500 ca         1 UVB      -0.277500
      6 C09        -24.3630   -23.1260     1.3440 c6         1 UVB       0.193800
      7 C10        -24.1400   -23.7960     2.6940 c6         1 UVB       0.171300
      8 C12        -22.8650   -23.2710     3.3390 c6         1 UVB      -0.114400
      9 C13        -22.9100   -21.7520     3.4420 c6         1 UVB      -0.070400
     10 C14        -23.1790   -21.1170     2.0880 c6         1 UVB       0.193800
     11 C16        -23.1360   -19.9010    -1.1890 ca         1 UVB      -0.032000
     12 C17        -22.2630   -20.0030    -2.2610 ca         1 UVB      -0.082000
     13 N08        -24.4170   -21.6780     1.5360 n3         1 UVB      -0.724500
     14 O07        -26.4270   -21.4940     0.0520 o          1 UVB      -0.529000
     15 S06        -25.1950   -20.7970     0.3770 sy         1 UVB       1.155600
     16 H1         -20.6780   -20.3220    -4.3180 h4         1 UVB      -0.004800
     17 H4         -23.5220   -22.7830    -3.7490 ha         1 UVB       0.130000
     18 H5         -25.0800   -22.6180    -1.8540 ha         1 UVB       0.140000
     19 H6         -25.3000   -23.4770     0.9150 h1         1 UVB       0.067700
     20 H7         -23.5480   -23.3990     0.6590 h1         1 UVB       0.067700
     21 H8         -24.9910   -23.5370     3.3400 h1         1 UVB       0.050700
     22 H9         -22.7330   -23.7130     4.3300 hc         1 UVB       0.049700
     23 H10        -22.0060   -23.5780     2.7320 hc         1 UVB       0.049700
     24 H11        -21.9640   -21.3680     3.8260 hc         1 UVB       0.055700
     25 H12        -23.6900   -21.4430     4.1420 hc         1 UVB       0.055700
     26 H13        -22.3400   -21.3090     1.4070 h1         1 UVB       0.055200
     27 H14        -23.2840   -20.0400     2.1990 h1         1 UVB       0.055200
     28 H15        -23.0330   -19.0880    -0.4830 ha         1 UVB       0.140000
     29 H16        -21.4750   -19.2690    -2.3830 ha         1 UVB       0.130000
     30 O1         -21.4670   -21.9770    -5.1520 o          1 UVB      -0.500100
     31 O11        -24.0960   -25.1810     2.4420 oh         1 UVB      -0.659000
     32 O15        -25.2480   -19.4240     0.8450 o          1 UVB      -0.529000
     33 H17        -23.9680   -25.6360     3.2800 ho         1 UVB       0.449000
@<TRIPOS>BOND
     1     1     2 1   
     2     1    16 1   
     3     1    30 2   
     4     2     3 ar  
     5     2    12 ar  
     6     3     4 ar  
     7     3    17 1   
     8     4     5 ar  
     9     4    18 1   
    10     5    11 ar  
    11     5    15 1   
    12     6     7 1   
    13     6    13 1   
    14     6    19 1   
    15     6    20 1   
    16     7     8 1   
    17     7    21 1   
    18     7    31 1   
    19     8     9 1   
    20     8    22 1   
    21     8    23 1   
    22     9    10 1   
    23     9    24 1   
    24     9    25 1   
    25    10    13 1   
    26    10    26 1   
    27    10    27 1   
    28    11    12 ar  
    29    11    28 1   
    30    12    29 1   
    31    13    15 1   
    32    14    15 2   
    33    15    32 2   
    34    31    33 1   
@<TRIPOS>SUBSTRUCTURE
     1 UVB         1 TEMP              0 ****  ****    0 ROOT
