@<TRIPOS>MOLECULE
UVD
   32    33     1     0     0
SMALL
abcg2


@<TRIPOS>ATOM
      1 N1         -23.9140    12.7480    25.8330 nb         1 UVD      -0.666000
      2 C4         -18.6510    13.9260    25.0220 ca         1 UVD      -0.075000
      3 C5         -18.9300    13.3710    26.2680 ca         1 UVD      -0.107300
      4 C6         -19.6950    12.0760    26.3920 c3         1 UVD       0.015200
      5 C7         -21.1720    12.2910    26.1970 ca         1 UVD      -0.036300
      6 C8         -21.8050    11.9860    24.9980 ca         1 UVD      -0.160500
      7 C10        -23.3090    13.0390    26.9800 ca         1 UVD       0.334900
      8 C13        -17.8270    15.2730    27.3030 ca         1 UVD      -0.148000
      9 C          -14.8400    19.6810    26.9420 c3         1 UVD       0.171900
     10 O          -15.6380    18.8150    26.1390 os         1 UVD      -0.460100
     11 C1         -16.1580    17.7450    26.7390 c          1 UVD       0.645100
     12 C11        -21.9580    12.8330    27.2090 ca         1 UVD      -0.160500
     13 C12        -18.5080    14.0660    27.3930 ca         1 UVD      -0.075000
     14 C2         -17.5440    15.8140    26.0500 ca         1 UVD      -0.004000
     15 C3         -17.9700    15.1240    24.9110 ca         1 UVD      -0.148000
     16 C9         -23.1640    12.2310    24.8670 ca         1 UVD       0.334900
     17 O1         -16.0040    17.4820    27.9100 o          1 UVD      -0.523000
     18 H1         -18.9620    13.4160    24.1180 ha         1 UVD       0.113000
     19 H2         -19.3300    11.3520    25.6610 hc         1 UVD       0.058200
     20 H3         -19.5200    11.6480    27.3810 hc         1 UVD       0.058200
     21 H4         -21.2550    11.5540    24.1710 ha         1 UVD       0.121000
     22 H5         -23.9320    13.4560    27.7640 h4         1 UVD       0.017600
     23 H6         -17.5260    15.7730    28.2090 ha         1 UVD       0.130000
     24 H7         -16.8560    17.3510    24.8870 hn         1 UVD       0.166000
     25 H8         -14.5460    20.4990    26.2910 h1         1 UVD       0.050700
     26 H9         -15.4030    20.0780    27.7860 h1         1 UVD       0.050700
     27 H10        -13.9470    19.1750    27.3090 h1         1 UVD       0.050700
     28 H11        -21.5300    13.0940    28.1690 ha         1 UVD       0.121000
     29 H12        -18.7110    13.6620    28.3780 ha         1 UVD       0.113000
     30 H13        -17.7600    15.5280    23.9280 ha         1 UVD       0.130000
     31 H14        -23.6670    11.9930    23.9360 h4         1 UVD       0.017600
     32 N          -16.8720    17.0210    25.8410 ns         1 UVD      -0.140000
@<TRIPOS>BOND
     1     1     7 ar  
     2     1    16 ar  
     3     2     3 ar  
     4     2    15 ar  
     5     2    18 1   
     6     3     4 1   
     7     3    13 ar  
     8     4     5 1   
     9     4    19 1   
    10     4    20 1   
    11     5     6 ar  
    12     5    12 ar  
    13     6    16 ar  
    14     6    21 1   
    15     7    12 ar  
    16     7    22 1   
    17     8    13 ar  
    18     8    14 ar  
    19     8    23 1   
    20     9    10 1   
    21     9    25 1   
    22     9    26 1   
    23     9    27 1   
    24    10    11 1   
    25    11    17 2   
    26    11    32 1   
    27    12    28 1   
    28    13    29 1   
    29    14    15 ar  
    30    14    32 1   
    31    15    30 1   
    32    16    31 1   
    33    24    32 1   
@<TRIPOS>SUBSTRUCTURE
     1 UVD         1 TEMP              0 ****  ****    0 ROOT
