@<TRIPOS>MOLECULE
UVD
   32    33     1     0     0
SMALL
No Charge or Current Charge


@<TRIPOS>ATOM
      1 N1         -23.9970    12.8380    25.9860 nb         1 UVD      -0.666000
      2 C4         -18.4720    13.7580    24.9730 ca         1 UVD      -0.075000
      3 C5         -18.9150    13.2950    26.2250 ca         1 UVD      -0.107300
      4 C6         -19.7330    12.0140    26.3260 c3         1 UVD       0.015200
      5 C7         -21.2240    12.2960    26.2080 ca         1 UVD      -0.036300
      6 C8         -21.8690    12.2950    24.9580 ca         1 UVD      -0.160500
      7 C10        -23.3760    12.8410    27.1890 ca         1 UVD       0.334900
      8 C13        -17.8560    15.2200    27.2890 ca         1 UVD      -0.148000
      9 C          -14.9110    19.8590    26.8410 c3         1 UVD       0.171900
     10 O          -15.4910    18.7800    26.0830 os         1 UVD      -0.460100
     11 C1         -16.1740    17.8120    26.7690 c          1 UVD       0.645100
     12 C11        -22.0040    12.5780    27.3430 ca         1 UVD      -0.160500
     13 C12        -18.6050    14.0330    27.3810 ca         1 UVD      -0.075000
     14 C2         -17.4070    15.6870    26.0340 ca         1 UVD      -0.004000
     15 C3         -17.7240    14.9440    24.8810 ca         1 UVD      -0.148000
     16 C9         -23.2460    12.5680    24.8920 ca         1 UVD       0.334900
     17 O1         -16.3270    17.7970    27.9830 o          1 UVD      -0.523000
     18 H1         -18.7080    13.2010    24.0690 ha         1 UVD       0.113000
     19 H2         -19.4230    11.3070    25.5460 hc         1 UVD       0.058200
     20 H3         -19.5220    11.5070    27.2760 hc         1 UVD       0.058200
     21 H4         -21.3170    12.0890    24.0460 ha         1 UVD       0.121000
     22 H5         -23.9980    13.0610    28.0550 h4         1 UVD       0.017600
     23 H6         -17.6380    15.7600    28.2050 ha         1 UVD       0.130000
     24 H7         -16.4060    17.0820    24.9070 hn         1 UVD       0.166000
     25 H8         -14.3960    20.5610    26.1720 h1         1 UVD       0.050700
     26 H9         -15.6840    20.4160    27.3860 h1         1 UVD       0.050700
     27 H10        -14.1780    19.4810    27.5650 h1         1 UVD       0.050700
     28 H11        -21.5600    12.5970    28.3340 ha         1 UVD       0.121000
     29 H12        -18.9450    13.6890    28.3550 ha         1 UVD       0.113000
     30 H13        -17.3890    15.2870    23.9040 ha         1 UVD       0.130000
     31 H14        -23.7640    12.5730    23.9340 h4         1 UVD       0.017600
     32 N          -16.6480    16.8770    25.8670 ns         1 UVD      -0.140000
@<TRIPOS>BOND
     1     1     7 ar  
     2     1    16 ar  
     3     2     3 ar  
     4     2    15 ar  
     5     2    18 1   
     6     3     4 1   
     7     3    13 ar  
     8     4     5 1   
     9     4    19 1   
    10     4    20 1   
    11     5     6 ar  
    12     5    12 ar  
    13     6    16 ar  
    14     6    21 1   
    15     7    12 ar  
    16     7    22 1   
    17     8    13 ar  
    18     8    14 ar  
    19     8    23 1   
    20     9    10 1   
    21     9    25 1   
    22     9    26 1   
    23     9    27 1   
    24    10    11 1   
    25    11    17 2   
    26    11    32 1   
    27    12    28 1   
    28    13    29 1   
    29    14    15 ar  
    30    14    32 1   
    31    15    30 1   
    32    16    31 1   
    33    24    32 1   
@<TRIPOS>SUBSTRUCTURE
     1 UVD         1 TEMP              0 ****  ****    0 ROOT
