@<TRIPOS>MOLECULE
UVE
   34    36     1     0     0
SMALL
abcg2


@<TRIPOS>ATOM
      1 C04        -26.2480    20.7240    -0.6910 ca         1 UVE       0.152000
      2 C05        -27.3420    21.5410    -0.9770 ca         1 UVE      -0.050000
      3 C06        -28.5290    21.4010    -0.2830 ca         1 UVE      -0.137000
      4 C07        -28.6480    20.4060     0.6820 ca         1 UVE      -0.074000
      5 C08        -27.5920    19.5520     0.9360 ca         1 UVE      -0.139000
      6 C09        -26.3860    19.6990     0.2520 ca         1 UVE       0.123100
      7 C11        -24.1600    18.9560    -0.1040 c6         1 UVE       0.127600
      8 C12        -24.2880    19.5780    -1.4790 c6         1 UVE       0.156800
      9 C13        -23.3480    22.2130     0.2960 ca         1 UVE      -0.279500
     10 C14        -22.0100    21.8540     0.3790 ca         1 UVE      -0.029500
     11 C15        -21.4250    21.7560     1.6320 ca         1 UVE      -0.083500
     12 C16        -22.1700    22.0140     2.7760 ca         1 UVE      -0.148600
     13 C17        -21.5180    21.8860     4.0960 c          1 UVE       0.577500
     14 C19        -23.5100    22.3870     2.6740 ca         1 UVE      -0.083500
     15 C20        -24.1040    22.4930     1.4310 ca         1 UVE      -0.029500
     16 N03        -25.0280    20.8380    -1.4060 nh         1 UVE      -0.717300
     17 O01        -25.0930    23.3460    -1.2810 o          1 UVE      -0.525500
     18 O10        -25.4240    18.7970     0.5190 os         1 UVE      -0.332100
     19 O21        -23.1200    22.1780    -2.3140 o          1 UVE      -0.525500
     20 S02        -24.1430    22.2530    -1.2900 sy         1 UVE       1.151600
     21 O1         -22.0770    22.0840     5.1460 o          1 UVE      -0.499100
     22 H1         -27.2560    22.2870    -1.7540 ha         1 UVE       0.144000
     23 H2         -29.3620    22.0530    -0.5060 ha         1 UVE       0.124000
     24 H3         -29.5750    20.2850     1.2280 ha         1 UVE       0.120000
     25 H4         -27.6860    18.7600     1.6680 ha         1 UVE       0.131000
     26 H5         -23.7180    17.9630    -0.1790 h1         1 UVE       0.064700
     27 H6         -23.5140    19.5610     0.5370 h1         1 UVE       0.064700
     28 H7         -24.8350    18.9190    -2.1560 h1         1 UVE       0.086700
     29 H8         -23.3020    19.7320    -1.9120 h1         1 UVE       0.086700
     30 H9         -21.4310    21.6460    -0.5100 ha         1 UVE       0.142000
     31 H10        -20.3820    21.4760     1.7160 ha         1 UVE       0.131000
     32 H11        -20.4560    21.5860     4.0590 h4         1 UVE      -0.003800
     33 H13        -24.0860    22.5960     3.5650 ha         1 UVE       0.131000
     34 H14        -25.1400    22.7930     1.3550 ha         1 UVE       0.142000
@<TRIPOS>BOND
     1     1     2 ar  
     2     1     6 ar  
     3     1    16 1   
     4     2     3 ar  
     5     2    22 1   
     6     3     4 ar  
     7     3    23 1   
     8     4     5 ar  
     9     4    24 1   
    10     5     6 ar  
    11     5    25 1   
    12     6    18 1   
    13     7     8 1   
    14     7    18 1   
    15     7    26 1   
    16     7    27 1   
    17     8    16 1   
    18     8    28 1   
    19     8    29 1   
    20     9    10 ar  
    21     9    15 ar  
    22     9    20 1   
    23    10    11 ar  
    24    10    30 1   
    25    11    12 ar  
    26    11    31 1   
    27    12    13 1   
    28    12    14 ar  
    29    13    21 2   
    30    13    32 1   
    31    14    15 ar  
    32    14    33 1   
    33    15    34 1   
    34    16    20 1   
    35    17    20 2   
    36    19    20 2   
@<TRIPOS>SUBSTRUCTURE
     1 UVE         1 TEMP              0 ****  ****    0 ROOT
