@<TRIPOS>MOLECULE
UVE
   34    36     1     0     0
SMALL
No Charge or Current Charge


@<TRIPOS>ATOM
      1 C04        -26.1710    20.7210    -0.6690 ca         1 UVE       0.152000
      2 C05        -27.2410    21.6410    -0.7660 ca         1 UVE      -0.050000
      3 C06        -28.3690    21.5290     0.0650 ca         1 UVE      -0.137000
      4 C07        -28.4660    20.4800     0.9910 ca         1 UVE      -0.074000
      5 C08        -27.4390    19.5280     1.0690 ca         1 UVE      -0.139000
      6 C09        -26.3040    19.6380     0.2490 ca         1 UVE       0.123100
      7 C11        -24.0740    18.8340    -0.3090 c6         1 UVE       0.127600
      8 C12        -24.2220    19.5570    -1.6730 c6         1 UVE       0.156800
      9 C13        -23.4080    22.1730     0.1740 ca         1 UVE      -0.279500
     10 C14        -22.0780    21.7590     0.3930 ca         1 UVE      -0.029500
     11 C15        -21.5680    21.6870     1.7020 ca         1 UVE      -0.083500
     12 C16        -22.3760    22.0310     2.8050 ca         1 UVE      -0.148600
     13 C17        -21.8150    21.9470     4.2010 c          1 UVE       0.577500
     14 C19        -23.7050    22.4520     2.5800 ca         1 UVE      -0.083500
     15 C20        -24.2170    22.5250     1.2740 ca         1 UVE      -0.029500
     16 N03        -25.0260    20.8070    -1.5170 nh         1 UVE      -0.717300
     17 O01        -24.9920    23.3940    -1.5840 o          1 UVE      -0.525500
     18 O10        -25.3540    18.6360     0.3300 os         1 UVE      -0.332100
     19 O21        -22.9870    22.0830    -2.4680 o          1 UVE      -0.525500
     20 S02        -24.0780    22.2500    -1.5000 sy         1 UVE       1.151600
     21 O1         -22.4560    22.2310     5.2080 o          1 UVE      -0.499100
     22 H1         -27.2200    22.4340    -1.5060 ha         1 UVE       0.144000
     23 H2         -29.1780    22.2520    -0.0200 ha         1 UVE       0.124000
     24 H3         -29.3430    20.3910     1.6280 ha         1 UVE       0.120000
     25 H4         -27.5230    18.6960     1.7640 ha         1 UVE       0.131000
     26 H5         -23.5830    17.8610    -0.4430 h1         1 UVE       0.064700
     27 H6         -23.4460    19.4360     0.3600 h1         1 UVE       0.064700
     28 H7         -24.7280    18.8800    -2.3760 h1         1 UVE       0.086700
     29 H8         -23.2170    19.7310    -2.0840 h1         1 UVE       0.086700
     30 H9         -21.4350    21.4850    -0.4420 ha         1 UVE       0.142000
     31 H10        -20.5400    21.3620     1.8550 ha         1 UVE       0.131000
     32 H11        -20.7580    21.6060     4.2780 h4         1 UVE      -0.003800
     33 H13        -24.3450    22.7240     3.4170 ha         1 UVE       0.131000
     34 H14        -25.2440    22.8520     1.1220 ha         1 UVE       0.142000
@<TRIPOS>BOND
     1     1     2 ar  
     2     1     6 ar  
     3     1    16 1   
     4     2     3 ar  
     5     2    22 1   
     6     3     4 ar  
     7     3    23 1   
     8     4     5 ar  
     9     4    24 1   
    10     5     6 ar  
    11     5    25 1   
    12     6    18 1   
    13     7     8 1   
    14     7    18 1   
    15     7    26 1   
    16     7    27 1   
    17     8    16 1   
    18     8    28 1   
    19     8    29 1   
    20     9    10 ar  
    21     9    15 ar  
    22     9    20 1   
    23    10    11 ar  
    24    10    30 1   
    25    11    12 ar  
    26    11    31 1   
    27    12    13 1   
    28    12    14 ar  
    29    13    21 2   
    30    13    32 1   
    31    14    15 ar  
    32    14    33 1   
    33    15    34 1   
    34    16    20 1   
    35    17    20 2   
    36    19    20 2   
@<TRIPOS>SUBSTRUCTURE
     1 UVE         1 TEMP              0 ****  ****    0 ROOT
