@<TRIPOS>MOLECULE
UVF
   54    58     1     0     0
SMALL
No Charge or Current Charge


@<TRIPOS>ATOM
      1 C4         -20.0690    10.5800   -17.6150 cc         1 UVF       0.439900
      2 C5         -20.3620     9.3040   -17.2780 cd         1 UVF      -0.352600
      3 C6         -21.7120     8.7610   -17.4420 c          1 UVF       0.632600
      4 C8         -18.2250     9.7770   -16.9090 cd         1 UVF       0.473800
      5 N1         -22.5790     9.6730   -17.9520 ns         1 UVF      -0.472500
      6 N3         -21.0250    11.4350   -18.1230 n          1 UVF      -0.366300
      7 CAG        -17.6830     5.2920   -17.0280 ca         1 UVF      -0.087500
      8 CAE        -17.2460     4.3640   -17.9880 ca         1 UVF      -0.114000
      9 CAD        -17.6100     4.5190   -19.3350 ca         1 UVF      -0.112000
     10 CAF        -18.4100     5.6060   -19.7210 ca         1 UVF      -0.114000
     11 CAH        -18.8500     6.5350   -18.7620 ca         1 UVF      -0.087500
     12 CAT        -18.4860     6.3880   -17.4050 ca         1 UVF      -0.096300
     13 N7         -19.1710     8.7580   -16.8150 na         1 UVF      -0.116500
     14 O6         -22.0490     7.6240   -17.1640 o          1 UVF      -0.540000
     15 C2         -22.3380    10.9680   -18.3050 c          1 UVF       0.622000
     16 O2         -23.2390    11.6600   -18.7500 o          1 UVF      -0.561000
     17 CAL        -20.6900    12.8300   -18.4970 c3         1 UVF       0.119000
     18 CAA        -20.7350    13.7950   -17.2980 c3         1 UVF      -0.113100
     19 N9         -18.7630    10.8880   -17.3920 nc         1 UVF      -0.714000
     20 CAO        -16.7830     9.6880   -16.5030 c3         1 UVF      -0.127000
     21 CAU        -16.0160     8.6590   -17.2750 cc         1 UVF       0.221300
     22 NAQ        -15.1880     7.7800   -16.6310 nc         1 UVF      -0.684000
     23 CAV        -14.6790     7.0100   -17.5810 cd         1 UVF       0.412800
     24 CAM        -13.7110     5.8740   -17.3600 c6         1 UVF      -0.101700
     25 CAJ        -13.0130     5.4930   -18.6960 c6         1 UVF      -0.080400
     26 CAK        -14.0370     5.4240   -19.8640 c6         1 UVF      -0.093400
     27 CAN        -14.7580     6.7830   -20.0950 c6         1 UVF       0.077600
     28 NBB        -15.1720     7.3880   -18.8140 na         1 UVF      -0.163500
     29 CAI        -16.0220     8.4580   -18.6310 cd         1 UVF      -0.196000
     30 H1         -23.5240     9.3510   -18.0860 hn         1 UVF       0.344500
     31 H3         -16.6240     3.5230   -17.6870 ha         1 UVF       0.112500
     32 H4         -17.2730     3.8000   -20.0780 ha         1 UVF       0.110000
     33 H5         -18.6940     5.7280   -20.7640 ha         1 UVF       0.112500
     34 H6         -19.4740     7.3650   -19.0830 ha         1 UVF       0.119000
     35 H9         -19.6830    12.8510   -18.9340 h1         1 UVF       0.070700
     36 H10        -21.3750    13.1880   -19.2760 h1         1 UVF       0.070700
     37 H11        -20.4770    14.8120   -17.6180 hc         1 UVF       0.047700
     38 H12        -21.7390    13.8170   -16.8590 hc         1 UVF       0.047700
     39 H13        -20.0230    13.4870   -16.5240 hc         1 UVF       0.047700
     40 H14        -16.7280     9.4720   -15.4300 hc         1 UVF       0.083700
     41 H15        -16.3000    10.6620   -16.6380 hc         1 UVF       0.083700
     42 H16        -14.2550     5.0060   -16.9670 hc         1 UVF       0.066200
     43 H17        -12.9600     6.1440   -16.6060 hc         1 UVF       0.066200
     44 H18        -12.4950     4.5300   -18.5860 hc         1 UVF       0.052200
     45 H19        -12.2410     6.2380   -18.9330 hc         1 UVF       0.052200
     46 H20        -14.7800     4.6460   -19.6440 hc         1 UVF       0.056700
     47 H21        -13.5340     5.1130   -20.7900 hc         1 UVF       0.056700
     48 H22        -14.0760     7.4800   -20.6020 h1         1 UVF       0.058700
     49 H23        -15.6380     6.6410   -20.7380 h1         1 UVF       0.058700
     50 H24        -16.5480     8.9660   -19.4300 h4         1 UVF       0.162000
     51 CAP        -18.9460     7.3800   -16.3340 c3         1 UVF       0.122900
     52 H2         -17.3920     5.1610   -15.9880 ha         1 UVF       0.119000
     53 H7         -19.8750     7.0090   -15.8840 h1         1 UVF       0.085700
     54 H8         -18.2000     7.4140   -15.5310 h1         1 UVF       0.085700
@<TRIPOS>BOND
     1     1     2 2   
     2     1     6 1   
     3     1    19 1   
     4     2     3 1   
     5     2    13 1   
     6     3     5 1   
     7     3    14 2   
     8     4    13 1   
     9     4    19 2   
    10     4    20 1   
    11     5    15 1   
    12     5    30 1   
    13     6    15 1   
    14     6    17 1   
    15     7     8 ar  
    16     7    12 ar  
    17     7    52 1   
    18     8     9 ar  
    19     8    31 1   
    20     9    10 ar  
    21     9    32 1   
    22    10    11 ar  
    23    10    33 1   
    24    11    12 ar  
    25    11    34 1   
    26    12    51 1   
    27    13    51 1   
    28    15    16 2   
    29    17    18 1   
    30    17    35 1   
    31    17    36 1   
    32    18    37 1   
    33    18    38 1   
    34    18    39 1   
    35    20    21 1   
    36    20    40 1   
    37    20    41 1   
    38    21    22 1   
    39    21    29 2   
    40    22    23 2   
    41    23    24 1   
    42    23    28 1   
    43    24    25 1   
    44    24    42 1   
    45    24    43 1   
    46    25    26 1   
    47    25    44 1   
    48    25    45 1   
    49    26    27 1   
    50    26    46 1   
    51    26    47 1   
    52    27    28 1   
    53    27    48 1   
    54    27    49 1   
    55    28    29 1   
    56    29    50 1   
    57    51    53 1   
    58    51    54 1   
@<TRIPOS>SUBSTRUCTURE
     1 UVF         1 TEMP              0 ****  ****    0 ROOT
