@<TRIPOS>MOLECULE
UVF
   54    58     1     0     0
SMALL
abcg2


@<TRIPOS>ATOM
      1 C4         -20.0270    10.5830   -17.6520 cc         1 UVF       0.439900
      2 C5         -20.3090     9.2800   -17.2930 cd         1 UVF      -0.352600
      3 C6         -21.6080     8.7170   -17.4400 c          1 UVF       0.632600
      4 C8         -18.2030     9.7770   -16.8840 cd         1 UVF       0.473800
      5 N1         -22.4890     9.6530   -17.9930 ns         1 UVF      -0.472500
      6 N3         -20.9690    11.4260   -18.1910 n          1 UVF      -0.366300
      7 CAG        -17.6620     5.3620   -17.0780 ca         1 UVF      -0.087500
      8 CAE        -17.2950     4.4250   -18.0370 ca         1 UVF      -0.114000
      9 CAD        -17.7330     4.5630   -19.3500 ca         1 UVF      -0.112000
     10 CAF        -18.5410     5.6420   -19.6940 ca         1 UVF      -0.114000
     11 CAH        -18.9130     6.5730   -18.7310 ca         1 UVF      -0.087500
     12 CAT        -18.4760     6.4420   -17.4150 ca         1 UVF      -0.096300
     13 N7         -19.1150     8.7750   -16.7980 na         1 UVF      -0.116500
     14 O6         -21.9910     7.5850   -17.1530 o          1 UVF      -0.540000
     15 C2         -22.2580    10.9700   -18.3630 c          1 UVF       0.622000
     16 O2         -23.1580    11.6660   -18.8160 o          1 UVF      -0.561000
     17 CAL        -20.6360    12.8190   -18.5160 c3         1 UVF       0.119000
     18 CAA        -20.8340    13.7480   -17.3280 c3         1 UVF      -0.113100
     19 N9         -18.7330    10.8910   -17.4010 nc         1 UVF      -0.714000
     20 CAO        -16.7870     9.6520   -16.4360 c3         1 UVF      -0.127000
     21 CAU        -15.9930     8.6460   -17.2180 cc         1 UVF       0.221300
     22 NAQ        -15.1340     7.7660   -16.5930 nc         1 UVF      -0.684000
     23 CAV        -14.6330     7.0020   -17.5510 cd         1 UVF       0.412800
     24 CAM        -13.6730     5.8700   -17.3980 c6         1 UVF      -0.101700
     25 CAJ        -13.0080     5.5300   -18.7350 c6         1 UVF      -0.080400
     26 CAK        -14.0620     5.4250   -19.8370 c6         1 UVF      -0.093400
     27 CAN        -14.7720     6.7570   -20.0490 c6         1 UVF       0.077600
     28 NBB        -15.1380     7.3520   -18.7640 na         1 UVF      -0.163500
     29 CAI        -16.0020     8.4060   -18.5650 cd         1 UVF      -0.196000
     30 H1         -23.4410     9.3380   -18.1300 hn         1 UVF       0.344500
     31 H3         -16.6520     3.5990   -17.7620 ha         1 UVF       0.112500
     32 H4         -17.4370     3.8420   -20.1010 ha         1 UVF       0.110000
     33 H5         -18.8800     5.7630   -20.7150 ha         1 UVF       0.112500
     34 H6         -19.5300     7.4140   -19.0180 ha         1 UVF       0.119000
     35 H9         -19.6000    12.8250   -18.8470 h1         1 UVF       0.070700
     36 H10        -21.2680    13.1110   -19.3510 h1         1 UVF       0.070700
     37 H11        -20.5670    14.7680   -17.6100 hc         1 UVF       0.047700
     38 H12        -21.8750    13.7430   -17.0000 hc         1 UVF       0.047700
     39 H13        -20.2030    13.4470   -16.4900 hc         1 UVF       0.047700
     40 H14        -16.7620     9.3580   -15.3830 hc         1 UVF       0.083700
     41 H15        -16.3460    10.6480   -16.4980 hc         1 UVF       0.083700
     42 H16        -14.2180     4.9940   -17.0300 hc         1 UVF       0.066200
     43 H17        -12.9340     6.1250   -16.6370 hc         1 UVF       0.066200
     44 H18        -12.4600     4.5910   -18.6440 hc         1 UVF       0.052200
     45 H19        -12.2810     6.3060   -18.9950 hc         1 UVF       0.052200
     46 H20        -14.7940     4.6610   -19.5650 hc         1 UVF       0.056700
     47 H21        -13.6100     5.1230   -20.7830 hc         1 UVF       0.056700
     48 H22        -14.1200     7.4550   -20.5790 h1         1 UVF       0.058700
     49 H23        -15.6820     6.6290   -20.6360 h1         1 UVF       0.058700
     50 H24        -16.5530     8.8500   -19.3750 h4         1 UVF       0.162000
     51 CAP        -18.8840     7.4120   -16.3280 c3         1 UVF       0.122900
     52 H2         -17.3000     5.2640   -16.0620 ha         1 UVF       0.119000
     53 H7         -19.8090     7.0790   -15.8590 h1         1 UVF       0.085700
     54 H8         -18.1170     7.4490   -15.5590 h1         1 UVF       0.085700
@<TRIPOS>BOND
     1     1     2 2   
     2     1     6 1   
     3     1    19 1   
     4     2     3 1   
     5     2    13 1   
     6     3     5 1   
     7     3    14 2   
     8     4    13 1   
     9     4    19 2   
    10     4    20 1   
    11     5    15 1   
    12     5    30 1   
    13     6    15 1   
    14     6    17 1   
    15     7     8 ar  
    16     7    12 ar  
    17     7    52 1   
    18     8     9 ar  
    19     8    31 1   
    20     9    10 ar  
    21     9    32 1   
    22    10    11 ar  
    23    10    33 1   
    24    11    12 ar  
    25    11    34 1   
    26    12    51 1   
    27    13    51 1   
    28    15    16 2   
    29    17    18 1   
    30    17    35 1   
    31    17    36 1   
    32    18    37 1   
    33    18    38 1   
    34    18    39 1   
    35    20    21 1   
    36    20    40 1   
    37    20    41 1   
    38    21    22 1   
    39    21    29 2   
    40    22    23 2   
    41    23    24 1   
    42    23    28 1   
    43    24    25 1   
    44    24    42 1   
    45    24    43 1   
    46    25    26 1   
    47    25    44 1   
    48    25    45 1   
    49    26    27 1   
    50    26    46 1   
    51    26    47 1   
    52    27    28 1   
    53    27    48 1   
    54    27    49 1   
    55    28    29 1   
    56    29    50 1   
    57    51    53 1   
    58    51    54 1   
@<TRIPOS>SUBSTRUCTURE
     1 UVF         1 TEMP              0 ****  ****    0 ROOT
