@<TRIPOS>MOLECULE
UVG
   19    19     1     0     0
SMALL
bcc


@<TRIPOS>ATOM
      1 N1         -23.3660    11.6490    26.4880 na         1 UVG      -0.002600
      2 C4         -22.3900    11.5600    25.5830 cc         1 UVG      -0.072300
      3 C5         -22.1030    13.2620    26.9460 cd         1 UVG       0.335200
      4 N          -19.3050    13.5620    25.5520 n          1 UVG      -0.474800
      5 C          -19.0450    13.6690    26.9740 c3         1 UVG       0.089800
      6 O          -20.3670    12.6000    23.8110 o          1 UVG      -0.614100
      7 C1         -18.2340    14.0350    24.7000 c3         1 UVG       0.089800
      8 C3         -21.5170    12.5980    25.8460 cd         1 UVG      -0.342900
      9 N2         -23.2220    12.6770    27.3200 nc         1 UVG      -0.525800
     10 H1         -24.1600    11.0350    26.5850 hn         1 UVG       0.324700
     11 H2         -22.3690    10.7840    24.8350 h4         1 UVG       0.188000
     12 H3         -21.7650    14.1500    27.4560 h4         1 UVG       0.040100
     13 H4         -19.6470    12.9680    27.5430 h1         1 UVG       0.040200
     14 H5         -17.9990    13.4250    27.1620 h1         1 UVG       0.040200
     15 H6         -19.2280    14.6790    27.3470 h1         1 UVG       0.040200
     16 H7         -17.8280    14.9550    25.1190 h1         1 UVG       0.040200
     17 H8         -17.4220    13.3070    24.6270 h1         1 UVG       0.040200
     18 H9         -18.5990    14.2470    23.7000 h1         1 UVG       0.040200
     19 C2         -20.3500    12.9120    25.0000 c          1 UVG       0.721700
@<TRIPOS>BOND
     1     1     2 1   
     2     1     9 1   
     3     1    10 1   
     4     2     8 2   
     5     2    11 1   
     6     3     8 1   
     7     3     9 2   
     8     3    12 1   
     9     4     5 1   
    10     4     7 1   
    11     4    19 1   
    12     5    13 1   
    13     5    14 1   
    14     5    15 1   
    15     6    19 2   
    16     7    16 1   
    17     7    17 1   
    18     7    18 1   
    19     8    19 1   
@<TRIPOS>SUBSTRUCTURE
     1 UVG         1 TEMP              0 ****  ****    0 ROOT
