@<TRIPOS>MOLECULE
UVG
   19    19     1     0     0
SMALL
No Charge or Current Charge


@<TRIPOS>ATOM
      1 N1         -23.4710    11.6790    26.4550 na         1 UVG      -0.002200
      2 C4         -22.5250    11.6590    25.4360 cc         1 UVG      -0.105000
      3 C5         -21.9750    13.0180    27.1180 cd         1 UVG       0.269900
      4 N          -19.2670    13.5850    25.5500 n          1 UVG      -0.407800
      5 C          -19.0920    13.9030    26.9820 c3         1 UVG       0.089800
      6 O          -20.2500    12.3390    23.8980 o          1 UVG      -0.614100
      7 C1         -18.1480    13.9660    24.6570 c3         1 UVG       0.089800
      8 C3         -21.5410    12.5150    25.8660 cd         1 UVG      -0.277600
      9 N2         -23.1380    12.5230    27.4990 nc         1 UVG      -0.525800
     10 H1         -24.3400    11.1440    26.4670 hn         1 UVG       0.375000
     11 H2         -22.6270    11.0620    24.5360 h4         1 UVG       0.170000
     12 H3         -21.5090    13.7430    27.7690 h4         1 UVG       0.040100
     13 H4         -19.3750    13.0420    27.6010 h1         1 UVG       0.040200
     14 H5         -18.0400    14.1330    27.1940 h1         1 UVG       0.040200
     15 H6         -19.6960    14.7800    27.2450 h1         1 UVG       0.040200
     16 H7         -17.5520    14.7700    25.1090 h1         1 UVG       0.040200
     17 H8         -17.5030    13.0960    24.4820 h1         1 UVG       0.040200
     18 H9         -18.5400    14.3250    23.6970 h1         1 UVG       0.040200
     19 C2         -20.3280    12.7930    25.0340 c          1 UVG       0.654700
@<TRIPOS>BOND
     1     1     2 1   
     2     1     9 1   
     3     1    10 1   
     4     2     8 2   
     5     2    11 1   
     6     3     8 1   
     7     3     9 2   
     8     3    12 1   
     9     4     5 1   
    10     4     7 1   
    11     4    19 1   
    12     5    13 1   
    13     5    14 1   
    14     5    15 1   
    15     6    19 2   
    16     7    16 1   
    17     7    17 1   
    18     7    18 1   
    19     8    19 1   
@<TRIPOS>SUBSTRUCTURE
     1 UVG         1 TEMP              0 ****  ****    0 ROOT
