@<TRIPOS>MOLECULE
UVH
   40    41     1     0     0
SMALL
bcc


@<TRIPOS>ATOM
      1 C01         12.7020    16.9570    -2.0510 c3         1 UVH      -0.092600
      2 C02         14.2110    16.8350    -2.2430 c3         1 UVH       0.194500
      3 C04         16.2930    18.1110    -2.1820 c6         1 UVH       0.171800
      4 C05         17.0600    19.1440    -1.3520 c6         1 UVH       0.204300
      5 C09         17.7260    21.6980     0.6950 ca         1 UVH      -0.275500
      6 C10         17.1710    22.0170     1.9300 ca         1 UVH      -0.050500
      7 C11         17.9590    21.9430     3.0630 ca         1 UVH      -0.101500
      8 C12         19.2920    21.5500     2.9610 ca         1 UVH      -0.152600
      9 C13         19.8340    21.2360     1.7190 ca         1 UVH      -0.101500
     10 C14         19.0550    21.3120     0.5760 ca         1 UVH      -0.050500
     11 C15         20.1550    21.4680     4.1570 c          1 UVH       0.578500
     12 C17         15.0750    19.7370    -0.0520 c6         1 UVH       0.204300
     13 C18         14.8020    18.2640    -0.3460 c6         1 UVH       0.171800
     14 C19         14.4920    16.5840    -3.7210 c3         1 UVH      -0.092600
     15 N03         14.8960    18.0400    -1.7740 n3         1 UVH      -0.716600
     16 N06         16.1390    20.1990    -0.9500 n3         1 UVH      -0.726500
     17 O08         15.5430    22.5610    -0.4640 o          1 UVH      -0.601800
     18 O16         17.5460    22.0350    -1.8930 o          1 UVH      -0.601800
     19 S07         16.6960    21.7270    -0.7570 sy         1 UVH       1.308200
     20 H1          12.4020    17.0640    -1.0090 hc         1 UVH       0.039867
     21 H2          12.3190    17.8170    -2.6040 hc         1 UVH       0.039867
     22 H3          12.2070    16.0640    -2.4320 hc         1 UVH       0.039867
     23 H4          14.5660    15.9530    -1.6800 h1         1 UVH       0.015700
     24 H5          16.8150    17.1480    -2.0680 h1         1 UVH       0.039700
     25 H6          16.3490    18.3850    -3.2360 h1         1 UVH       0.039700
     26 H7          17.5170    18.6820    -0.4710 h1         1 UVH       0.054450
     27 H8          17.8670    19.5550    -1.9540 h1         1 UVH       0.054450
     28 H9          16.1400    22.3310     2.0110 ha         1 UVH       0.156500
     29 H10         17.5370    22.1940     4.0270 ha         1 UVH       0.147000
     30 H11         20.8720    20.9370     1.6410 ha         1 UVH       0.147000
     31 H12         19.4890    21.0790    -0.3870 ha         1 UVH       0.156500
     32 H13         21.1880    21.1340     3.9570 h4         1 UVH      -0.004800
     33 H16         15.3460    19.8510     1.0040 h1         1 UVH       0.054450
     34 H17         14.1770    20.3220    -0.2410 h1         1 UVH       0.054450
     35 H18         13.8010    18.0460     0.0190 h1         1 UVH       0.039700
     36 H19         15.4850    17.6170     0.2250 h1         1 UVH       0.039700
     37 H20         13.8980    15.7390    -4.0670 hc         1 UVH       0.039867
     38 H21         14.2150    17.4540    -4.3200 hc         1 UVH       0.039867
     39 H22         15.5360    16.3470    -3.9240 hc         1 UVH       0.039867
     40 O1          19.7900    21.7390     5.2740 o          1 UVH      -0.502100
@<TRIPOS>BOND
     1     1     2 1   
     2     1    20 1   
     3     1    21 1   
     4     1    22 1   
     5     2    14 1   
     6     2    15 1   
     7     2    23 1   
     8     3     4 1   
     9     3    15 1   
    10     3    24 1   
    11     3    25 1   
    12     4    16 1   
    13     4    26 1   
    14     4    27 1   
    15     5     6 ar  
    16     5    10 ar  
    17     5    19 1   
    18     6     7 ar  
    19     6    28 1   
    20     7     8 ar  
    21     7    29 1   
    22     8     9 ar  
    23     8    11 1   
    24     9    10 ar  
    25     9    30 1   
    26    10    31 1   
    27    11    32 1   
    28    11    40 2   
    29    12    13 1   
    30    12    16 1   
    31    12    33 1   
    32    12    34 1   
    33    13    15 1   
    34    13    35 1   
    35    13    36 1   
    36    14    37 1   
    37    14    38 1   
    38    14    39 1   
    39    16    19 1   
    40    17    19 2   
    41    18    19 2   
@<TRIPOS>SUBSTRUCTURE
     1 UVH         1 TEMP              0 ****  ****    0 ROOT
