@<TRIPOS>MOLECULE
UVH
   40    41     1     0     0
SMALL
No Charge or Current Charge


@<TRIPOS>ATOM
      1 C01         13.7000    17.0810    -3.6670 c3         1 UVH      -0.092600
      2 C02         14.4110    16.8780    -2.3040 c3         1 UVH       0.194500
      3 C04         15.5350    17.9770    -0.3440 c6         1 UVH       0.171800
      4 C05         15.7210    19.2770     0.5140 c6         1 UVH       0.204300
      5 C09         17.6000    21.6510     1.0680 ca         1 UVH      -0.275500
      6 C10         17.8790    21.4680     2.4380 ca         1 UVH      -0.032500
      7 C11         19.1940    21.2030     2.8600 ca         1 UVH      -0.083500
      8 C12         20.2440    21.1170     1.9190 ca         1 UVH      -0.152600
      9 C13         19.9580    21.2990     0.5500 ca         1 UVH      -0.083500
     10 C14         18.6440    21.5640     0.1260 ca         1 UVH      -0.032500
     11 C15         21.6570    20.8330     2.3580 c          1 UVH       0.578500
     12 C17         14.1390    20.5280    -0.8880 c6         1 UVH       0.204300
     13 C18         13.6770    19.1380    -1.4490 c6         1 UVH       0.171800
     14 C19         15.6140    15.9200    -2.5050 c3         1 UVH      -0.092600
     15 N03         14.8000    18.1630    -1.6460 n3         1 UVH      -0.716600
     16 N06         15.4940    20.5220    -0.2640 n3         1 UVH      -0.726500
     17 O08         15.0190    22.1300     1.6610 o          1 UVH      -0.531000
     18 O16         15.9940    22.9820    -0.5580 o          1 UVH      -0.531000
     19 S07         15.9140    21.9770     0.5080 sy         1 UVH       1.166600
     20 H1          12.7150    17.5440    -3.5400 hc         1 UVH       0.039867
     21 H2          14.3030    17.7110    -4.3310 hc         1 UVH       0.039867
     22 H3          13.5340    16.1190    -4.1660 hc         1 UVH       0.039867
     23 H4          13.6980    16.3550    -1.6520 h1         1 UVH       0.015700
     24 H5          15.0250    17.2300     0.2810 h1         1 UVH       0.039700
     25 H6          16.5390    17.5790    -0.5500 h1         1 UVH       0.039700
     26 H7          15.0200    19.2370     1.3600 h1         1 UVH       0.054450
     27 H8          16.7320    19.2460     0.9450 h1         1 UVH       0.054450
     28 H9          17.0840    21.5270     3.1800 ha         1 UVH       0.138500
     29 H10         19.3930    21.0640     3.9210 ha         1 UVH       0.129000
     30 H11         20.7530    21.2340    -0.1900 ha         1 UVH       0.129000
     31 H12         18.4390    21.6950    -0.9360 ha         1 UVH       0.138500
     32 H13         22.4160    20.7840     1.5460 h4         1 UVH      -0.004800
     33 H16         13.3800    20.8670    -0.1680 h1         1 UVH       0.054450
     34 H17         14.1270    21.2510    -1.7160 h1         1 UVH       0.054450
     35 H18         13.1410    19.3330    -2.3880 h1         1 UVH       0.039700
     36 H19         12.9420    18.7110    -0.7500 h1         1 UVH       0.039700
     37 H20         15.3070    15.0190    -3.0490 hc         1 UVH       0.039867
     38 H21         16.4100    16.4110    -3.0770 hc         1 UVH       0.039867
     39 H22         16.0270    15.5870    -1.5460 hc         1 UVH       0.039867
     40 O1          21.9820    20.6630     3.5290 o          1 UVH      -0.502100
@<TRIPOS>BOND
     1     1     2 1   
     2     1    20 1   
     3     1    21 1   
     4     1    22 1   
     5     2    14 1   
     6     2    15 1   
     7     2    23 1   
     8     3     4 1   
     9     3    15 1   
    10     3    24 1   
    11     3    25 1   
    12     4    16 1   
    13     4    26 1   
    14     4    27 1   
    15     5     6 ar  
    16     5    10 ar  
    17     5    19 1   
    18     6     7 ar  
    19     6    28 1   
    20     7     8 ar  
    21     7    29 1   
    22     8     9 ar  
    23     8    11 1   
    24     9    10 ar  
    25     9    30 1   
    26    10    31 1   
    27    11    32 1   
    28    11    40 2   
    29    12    13 1   
    30    12    16 1   
    31    12    33 1   
    32    12    34 1   
    33    13    15 1   
    34    13    35 1   
    35    13    36 1   
    36    14    37 1   
    37    14    38 1   
    38    14    39 1   
    39    16    19 1   
    40    17    19 2   
    41    18    19 2   
@<TRIPOS>SUBSTRUCTURE
     1 UVH         1 TEMP              0 ****  ****    0 ROOT
