@<TRIPOS>MOLECULE
UVJ
   28    29     1     0     0
SMALL
No Charge or Current Charge


@<TRIPOS>ATOM
      1 N1         -19.2570    13.2980    25.7260 na         1 UVJ      -0.186600
      2 C4         -23.0490    12.0240    26.7410 ca         1 UVJ      -0.136000
      3 C5         -22.3340    12.7100    27.7500 ca         1 UVJ      -0.096000
      4 C6         -21.0300    13.1830    27.4970 ca         1 UVJ      -0.118000
      5 C7         -20.4820    12.9490    26.2260 ca         1 UVJ      -0.081200
      6 C8         -18.2080    14.0380    26.4480 c3         1 UVJ       0.090600
      7 C10        -17.2980    16.2830    27.1390 c          1 UVJ       0.606100
      8 N          -20.4250    12.1840    24.0740 nc         1 UVJ      -0.576100
      9 O          -16.1900    16.4840    26.6740 o          1 UVJ      -0.608100
     10 C1         -19.2790    12.8090    24.4090 cd         1 UVJ       0.424800
     11 C2         -21.1670    12.2880    25.2410 ca         1 UVJ       0.071400
     12 C3         -22.4650    11.8090    25.4740 ca         1 UVJ      -0.049000
     13 C9         -18.4050    15.5650    26.3750 c3         1 UVJ      -0.190400
     14 N2         -17.6060    16.7000    28.3840 nt         1 UVJ      -0.606000
     15 H1         -24.0540    11.6610    26.9410 ha         1 UVJ       0.113000
     16 H2         -22.7900    12.8720    28.7240 ha         1 UVJ       0.111000
     17 H3         -20.4740    13.7120    28.2680 ha         1 UVJ       0.115000
     18 H4         -18.2040    13.7140    27.4970 h1         1 UVJ       0.075200
     19 H5         -17.2320    13.7740    26.0210 h1         1 UVJ       0.075200
     20 H6         -18.4120    12.5830    22.4430 hc         1 UVJ       0.059367
     21 H7         -17.8590    14.0130    23.3290 hc         1 UVJ       0.059367
     22 H8         -17.2620    12.4050    23.7790 hc         1 UVJ       0.059367
     23 H9         -23.0090    11.2850    24.6920 ha         1 UVJ       0.128000
     24 H10        -19.3810    15.8020    26.8170 hc         1 UVJ       0.069200
     25 H11        -18.3770    15.8740    25.3240 hc         1 UVJ       0.069200
     26 H12        -16.9080    17.1830    28.9290 hn         1 UVJ       0.317000
     27 H13        -18.5280    16.5350    28.7610 hn         1 UVJ       0.317000
     28 C          -18.1420    12.9600    23.4360 c3         1 UVJ      -0.115400
@<TRIPOS>BOND
     1     1     5 1   
     2     1     6 1   
     3     1    10 1   
     4     2     3 ar  
     5     2    12 ar  
     6     2    15 1   
     7     3     4 ar  
     8     3    16 1   
     9     4     5 ar  
    10     4    17 1   
    11     5    11 ar  
    12     6    13 1   
    13     6    18 1   
    14     6    19 1   
    15     7     9 2   
    16     7    13 1   
    17     7    14 1   
    18     8    10 2   
    19     8    11 1   
    20    10    28 1   
    21    11    12 ar  
    22    12    23 1   
    23    13    24 1   
    24    13    25 1   
    25    14    26 1   
    26    14    27 1   
    27    20    28 1   
    28    21    28 1   
    29    22    28 1   
@<TRIPOS>SUBSTRUCTURE
     1 UVJ         1 TEMP              0 ****  ****    0 ROOT
