@<TRIPOS>MOLECULE
UVK
   34    36     1     0     0
SMALL
No Charge or Current Charge


@<TRIPOS>ATOM
      1 C02        -13.1150    21.2880    -0.0020 ca         1 UVK       0.147000
      2 C03        -13.0450    20.2290    -0.9160 ca         1 UVK      -0.116000
      3 C04        -14.1080    19.3150    -0.9990 ca         1 UVK      -0.113000
      4 C05        -15.2470    19.4800    -0.1930 ca         1 UVK       0.105100
      5 C07        -17.5110    18.7690     0.3540 c6         1 UVK       0.127600
      6 C08        -17.3460    19.5040     1.7100 c6         1 UVK       0.157800
      7 C12        -18.0340    22.1260    -0.1840 ca         1 UVK      -0.280500
      8 C13        -17.2010    22.4430    -1.2770 ca         1 UVK      -0.029500
      9 C14        -17.6990    22.3730    -2.5890 ca         1 UVK      -0.082500
     10 C15        -19.0380    21.9920    -2.8270 ca         1 UVK      -0.147600
     11 C16        -19.8700    21.6850    -1.7300 ca         1 UVK      -0.082500
     12 C17        -19.3750    21.7520    -0.4170 ca         1 UVK      -0.029500
     13 C18        -19.5850    21.9130    -4.2280 c          1 UVK       0.576500
     14 C21        -15.3460    20.5800     0.7110 ca         1 UVK       0.184000
     15 C22        -14.2440    21.4570     0.8140 ca         1 UVK      -0.098000
     16 F01        -12.0770    22.1460     0.1070 f          1 UVK      -0.171000
     17 N09        -16.4940    20.7200     1.5440 nh         1 UVK      -0.722300
     18 O06        -16.2350    18.5150    -0.2730 os         1 UVK      -0.329100
     19 O11        -16.4260    23.3050     1.5800 o          1 UVK      -0.521500
     20 O20        -18.4920    22.0850     2.4530 o          1 UVK      -0.521500
     21 S10        -17.3830    22.1980     1.4980 sy         1 UVK       1.152600
     22 H1         -12.1620    20.1040    -1.5380 ha         1 UVK       0.139000
     23 H2         -14.0490    18.4720    -1.6840 ha         1 UVK       0.136000
     24 H3         -18.1110    19.3840    -0.3270 h1         1 UVK       0.066700
     25 H4         -18.0390    17.8160     0.4970 h1         1 UVK       0.066700
     26 H5         -18.3460    19.7210     2.1110 h1         1 UVK       0.087700
     27 H6         -16.8710    18.8170     2.4260 h1         1 UVK       0.087700
     28 H7         -16.1660    22.7400    -1.1150 ha         1 UVK       0.142500
     29 H8         -17.0410    22.6170    -3.4200 ha         1 UVK       0.131500
     30 H9         -20.9060    21.3920    -1.8930 ha         1 UVK       0.131500
     31 H10        -20.0360    21.5080     0.4130 ha         1 UVK       0.142500
     32 H11        -20.6500    21.6050    -4.3160 h4         1 UVK      -0.002800
     33 H14        -14.2380    22.2580     1.5430 ha         1 UVK       0.162000
     34 O1         -18.9210    22.1660    -5.2290 o          1 UVK      -0.497100
@<TRIPOS>BOND
     1     1     2 ar  
     2     1    15 ar  
     3     1    16 1   
     4     2     3 ar  
     5     2    22 1   
     6     3     4 ar  
     7     3    23 1   
     8     4    14 ar  
     9     4    18 1   
    10     5     6 1   
    11     5    18 1   
    12     5    24 1   
    13     5    25 1   
    14     6    17 1   
    15     6    26 1   
    16     6    27 1   
    17     7     8 ar  
    18     7    12 ar  
    19     7    21 1   
    20     8     9 ar  
    21     8    28 1   
    22     9    10 ar  
    23     9    29 1   
    24    10    11 ar  
    25    10    13 1   
    26    11    12 ar  
    27    11    30 1   
    28    12    31 1   
    29    13    32 1   
    30    13    34 2   
    31    14    15 ar  
    32    14    17 1   
    33    15    33 1   
    34    17    21 1   
    35    19    21 2   
    36    20    21 2   
@<TRIPOS>SUBSTRUCTURE
     1 UVK         1 TEMP              0 ****  ****    0 ROOT
