@<TRIPOS>MOLECULE
UVK
   34    36     1     0     0
SMALL
bcc


@<TRIPOS>ATOM
      1 C02        -12.9520    21.1400     0.3790 ca         1 UVK       0.111900
      2 C03        -12.8080    20.1220    -0.5470 ca         1 UVK      -0.134000
      3 C04        -13.8940    19.3100    -0.8100 ca         1 UVK      -0.131000
      4 C05        -15.1180    19.5230    -0.1800 ca         1 UVK       0.105100
      5 C07        -17.3820    18.8830     0.1130 c6         1 UVK       0.104400
      6 C08        -17.2700    19.5260     1.4790 c6         1 UVK       0.157800
      7 C12        -18.1080    22.1670    -0.3230 ca         1 UVK      -0.280500
      8 C13        -17.3440    22.4090    -1.4620 ca         1 UVK      -0.047500
      9 C14        -17.9470    22.3160    -2.7020 ca         1 UVK      -0.100500
     10 C15        -19.3000    21.9930    -2.7970 ca         1 UVK      -0.147600
     11 C16        -20.0500    21.7710    -1.6480 ca         1 UVK      -0.100500
     12 C17        -19.4570    21.8560    -0.3980 ca         1 UVK      -0.047500
     13 C18        -19.9630    21.8850    -4.1140 c          1 UVK       0.576500
     14 C21        -15.2490    20.5810     0.7270 ca         1 UVK       0.045600
     15 C22        -14.1390    21.3690     1.0330 ca         1 UVK      -0.116000
     16 F01        -11.8910    21.9120     0.6700 f          1 UVK      -0.135900
     17 N09        -16.4800    20.7570     1.4020 nh         1 UVK      -0.583900
     18 O06        -16.1050    18.6510    -0.4580 os         1 UVK      -0.305900
     19 O11        -16.3170    23.2600     1.2320 o          1 UVK      -0.592300
     20 O20        -18.3320    22.1840     2.2870 o          1 UVK      -0.592300
     21 S10        -17.3080    22.2050     1.2610 sy         1 UVK       1.294200
     22 H1         -11.8620    19.9560    -1.0450 ha         1 UVK       0.157000
     23 H2         -13.8020    18.4940    -1.5160 ha         1 UVK       0.154000
     24 H3         -17.9760    19.5040    -0.5610 h1         1 UVK       0.066700
     25 H4         -17.8720    17.9130     0.1920 h1         1 UVK       0.066700
     26 H5         -18.2620    19.7280     1.8780 h1         1 UVK       0.087700
     27 H6         -16.7720    18.8610     2.1860 h1         1 UVK       0.087700
     28 H7         -16.2970    22.6700    -1.3910 ha         1 UVK       0.160500
     29 H8         -17.3660    22.4980    -3.5960 ha         1 UVK       0.149500
     30 H9         -21.1030    21.5280    -1.7260 ha         1 UVK       0.149500
     31 H10        -20.0410    21.6770     0.4940 ha         1 UVK       0.160500
     32 H11        -21.0350    21.6260    -4.0710 h4         1 UVK      -0.002800
     33 H14        -14.2070    22.1440     1.7820 ha         1 UVK       0.180000
     34 O1         -19.4000    22.0590    -5.1660 o          1 UVK      -0.497100
@<TRIPOS>BOND
     1     1     2 ar  
     2     1    15 ar  
     3     1    16 1   
     4     2     3 ar  
     5     2    22 1   
     6     3     4 ar  
     7     3    23 1   
     8     4    14 ar  
     9     4    18 1   
    10     5     6 1   
    11     5    18 1   
    12     5    24 1   
    13     5    25 1   
    14     6    17 1   
    15     6    26 1   
    16     6    27 1   
    17     7     8 ar  
    18     7    12 ar  
    19     7    21 1   
    20     8     9 ar  
    21     8    28 1   
    22     9    10 ar  
    23     9    29 1   
    24    10    11 ar  
    25    10    13 1   
    26    11    12 ar  
    27    11    30 1   
    28    12    31 1   
    29    13    32 1   
    30    13    34 2   
    31    14    15 ar  
    32    14    17 1   
    33    15    33 1   
    34    17    21 1   
    35    19    21 2   
    36    20    21 2   
@<TRIPOS>SUBSTRUCTURE
     1 UVK         1 TEMP              0 ****  ****    0 ROOT
