@<TRIPOS>MOLECULE
UVM
   24    24     1     0     0
SMALL
abcg2


@<TRIPOS>ATOM
      1 C4         -17.2270    13.4940    25.2630 c6         1 UVM       0.138100
      2 C5         -18.3180    13.5800    27.3130 c6         1 UVM       0.138100
      3 C6         -19.6690    13.7890    26.6510 c6         1 UVM       0.071500
      4 N          -19.6400    13.2360    25.3070 n          1 UVM      -0.407800
      5 C          -23.7870    11.4870    26.2070 c3         1 UVM      -0.100100
      6 O          -21.6570    12.3250    25.5770 os         1 UVM      -0.463100
      7 C1         -22.7830    11.5910    25.0840 c3         1 UVM       0.184600
      8 C2         -20.6580    12.5640    24.7270 c          1 UVM       0.648100
      9 C3         -18.5240    13.7030    24.5040 c6         1 UVM       0.071500
     10 O1         -20.6690    12.2000    23.5660 o          1 UVM      -0.546000
     11 O2         -17.2650    14.1020    26.5350 os         1 UVM      -0.445000
     12 H1         -17.0310    12.4170    25.3570 h1         1 UVM       0.054450
     13 H2         -16.4010    13.9420    24.7100 h1         1 UVM       0.054450
     14 H3         -18.1660    12.5060    27.4940 h1         1 UVM       0.054450
     15 H4         -18.3000    14.0910    28.2770 h1         1 UVM       0.054450
     16 H5         -19.9020    14.8590    26.6070 h1         1 UVM       0.063450
     17 H6         -20.4340    13.3070    27.2540 h1         1 UVM       0.063450
     18 H7         -24.6600    10.9370    25.8570 hc         1 UVM       0.046700
     19 H8         -23.3790    10.9510    27.0640 hc         1 UVM       0.046700
     20 H9         -24.1220    12.4700    26.5380 hc         1 UVM       0.046700
     21 H10        -22.4660    10.5990    24.7560 h1         1 UVM       0.049700
     22 H11        -23.2180    12.1050    24.2250 h1         1 UVM       0.049700
     23 H12        -18.6550    14.7670    24.2720 h1         1 UVM       0.063450
     24 H13        -18.4860    13.1580    23.5650 h1         1 UVM       0.063450
@<TRIPOS>BOND
     1     1     9 1   
     2     1    11 1   
     3     1    12 1   
     4     1    13 1   
     5     2     3 1   
     6     2    11 1   
     7     2    14 1   
     8     2    15 1   
     9     3     4 1   
    10     3    16 1   
    11     3    17 1   
    12     4     8 1   
    13     4     9 1   
    14     5     7 1   
    15     5    18 1   
    16     5    19 1   
    17     5    20 1   
    18     6     7 1   
    19     6     8 1   
    20     7    21 1   
    21     7    22 1   
    22     8    10 2   
    23     9    23 1   
    24     9    24 1   
@<TRIPOS>SUBSTRUCTURE
     1 UVM         1 TEMP              0 ****  ****    0 ROOT
