@<TRIPOS>MOLECULE
UVM
   24    24     1     0     0
SMALL
No Charge or Current Charge


@<TRIPOS>ATOM
      1 C4         -17.1070    13.7650    25.2630 c6         1 UVM       0.138100
      2 C5         -18.2190    13.7310    27.3750 c6         1 UVM       0.138100
      3 C6         -19.5990    13.4250    26.7380 c6         1 UVM       0.071500
      4 N          -19.5600    12.9830    25.3030 n          1 UVM      -0.407800
      5 C          -23.9360    11.5670    26.1970 c3         1 UVM      -0.100100
      6 O          -21.7310    12.2450    25.5420 os         1 UVM      -0.463100
      7 C1         -22.9600    11.7150    25.0190 c3         1 UVM       0.184600
      8 C2         -20.7040    12.4640    24.6650 c          1 UVM       0.648100
      9 C3         -18.4100    13.4710    24.4770 c6         1 UVM       0.071500
     10 O1         -20.7610    12.2380    23.4650 o          1 UVM      -0.546000
     11 O2         -17.3950    14.4900    26.4720 os         1 UVM      -0.445000
     12 H1         -16.6050    12.8210    25.5210 h1         1 UVM       0.054450
     13 H2         -16.4190    14.3550    24.6410 h1         1 UVM       0.054450
     14 H3         -17.7070    12.7900    27.6230 h1         1 UVM       0.054450
     15 H4         -18.3550    14.2970    28.3070 h1         1 UVM       0.054450
     16 H5         -20.2220    14.3280    26.8040 h1         1 UVM       0.063450
     17 H6         -20.0890    12.6540    27.3490 h1         1 UVM       0.063450
     18 H7         -24.8930    11.1640    25.8480 hc         1 UVM       0.046700
     19 H8         -23.5290    10.8840    26.9520 hc         1 UVM       0.046700
     20 H9         -24.1220    12.5400    26.6680 hc         1 UVM       0.046700
     21 H10        -22.7970    10.7340    24.5530 h1         1 UVM       0.049700
     22 H11        -23.3910    12.3920    24.2690 h1         1 UVM       0.049700
     23 H12        -18.7220    14.3930    23.9650 h1         1 UVM       0.063450
     24 H13        -18.1840    12.7330    23.6950 h1         1 UVM       0.063450
@<TRIPOS>BOND
     1     1     9 1   
     2     1    11 1   
     3     1    12 1   
     4     1    13 1   
     5     2     3 1   
     6     2    11 1   
     7     2    14 1   
     8     2    15 1   
     9     3     4 1   
    10     3    16 1   
    11     3    17 1   
    12     4     8 1   
    13     4     9 1   
    14     5     7 1   
    15     5    18 1   
    16     5    19 1   
    17     5    20 1   
    18     6     7 1   
    19     6     8 1   
    20     7    21 1   
    21     7    22 1   
    22     8    10 2   
    23     9    23 1   
    24     9    24 1   
@<TRIPOS>SUBSTRUCTURE
     1 UVM         1 TEMP              0 ****  ****    0 ROOT
