@<TRIPOS>MOLECULE
UVN
   30    31     1     0     0
SMALL
No Charge or Current Charge


@<TRIPOS>ATOM
      1 C01        -21.5630   -19.3100    -4.3520 c          1 UVN       0.576500
      2 C02        -22.4610   -19.9550    -3.3290 ca         1 UVN      -0.147600
      3 C03        -23.1750   -19.1510    -2.4160 ca         1 UVN      -0.081500
      4 C04        -24.0170   -19.7380    -1.4560 ca         1 UVN      -0.032500
      5 C05        -24.1560   -21.1390    -1.3990 ca         1 UVN      -0.282500
      6 C09        -22.9320   -22.0510     1.2720 c6         1 UVN       0.177800
      7 C10        -22.1620   -21.5510     2.5270 c6         1 UVN       0.117000
      8 C12        -24.2820   -21.8940     3.8670 c          1 UVN       0.573000
      9 C13        -25.0410   -22.1160     2.5290 c6         1 UVN       0.100800
     10 C16        -23.4430   -21.9490    -2.3070 ca         1 UVN      -0.032500
     11 C17        -22.6020   -21.3580    -3.2670 ca         1 UVN      -0.081500
     12 N08        -24.3550   -21.6190     1.2880 n3         1 UVN      -0.716500
     13 N11        -22.9220   -21.6880     3.7870 ns         1 UVN      -0.502900
     14 O07        -25.3070   -23.3340    -0.3490 o          1 UVN      -0.524500
     15 S06        -25.2280   -21.8820    -0.1510 sy         1 UVN       1.158600
     16 H1         -21.5160   -18.1980    -4.3250 h4         1 UVN      -0.002800
     17 H4         -23.0790   -18.0670    -2.4470 ha         1 UVN       0.131500
     18 H5         -24.5570   -19.1020    -0.7550 ha         1 UVN       0.140500
     19 H6         -22.8720   -23.1490     1.2350 h1         1 UVN       0.065200
     20 H7         -22.4020   -21.6740     0.3860 h1         1 UVN       0.065200
     21 H8         -21.2100   -22.0920     2.6180 h1         1 UVN       0.054700
     22 H9         -21.9280   -20.4860     2.3950 h1         1 UVN       0.054700
     23 H10        -26.0230   -21.6380     2.6490 h1         1 UVN       0.086200
     24 H11        -25.2080   -23.2010     2.4650 h1         1 UVN       0.086200
     25 H12        -23.5340   -23.0340    -2.2760 ha         1 UVN       0.140500
     26 H13        -22.0590   -21.9970    -3.9610 ha         1 UVN       0.131500
     27 H14        -22.4380   -21.5510     4.6660 hn         1 UVN       0.324500
     28 O1         -20.9100   -19.9430    -5.1770 o          1 UVN      -0.497100
     29 O14        -24.8440   -21.9050     4.9530 o          1 UVN      -0.556000
     30 O15        -26.4260   -21.0420    -0.0440 o          1 UVN      -0.524500
@<TRIPOS>BOND
     1     1     2 1   
     2     1    16 1   
     3     1    28 2   
     4     2     3 ar  
     5     2    11 ar  
     6     3     4 ar  
     7     3    17 1   
     8     4     5 ar  
     9     4    18 1   
    10     5    10 ar  
    11     5    15 1   
    12     6     7 1   
    13     6    12 1   
    14     6    19 1   
    15     6    20 1   
    16     7    13 1   
    17     7    21 1   
    18     7    22 1   
    19     8     9 1   
    20     8    13 1   
    21     8    29 2   
    22     9    12 1   
    23     9    23 1   
    24     9    24 1   
    25    10    11 ar  
    26    10    25 1   
    27    11    26 1   
    28    12    15 1   
    29    13    27 1   
    30    14    15 2   
    31    15    30 2   
@<TRIPOS>SUBSTRUCTURE
     1 UVN         1 TEMP              0 ****  ****    0 ROOT
