@<TRIPOS>MOLECULE
UVN
   30    31     1     0     0
SMALL
bcc


@<TRIPOS>ATOM
      1 C01        -21.5990   -20.8690    -4.4490 c          1 UVN       0.576500
      2 C02        -22.5640   -20.8630    -3.3310 ca         1 UVN      -0.147600
      3 C03        -22.7270   -19.6970    -2.5900 ca         1 UVN      -0.099500
      4 C04        -23.6110   -19.6630    -1.5240 ca         1 UVN      -0.050500
      5 C05        -24.3250   -20.8120    -1.2130 ca         1 UVN      -0.282500
      6 C09        -23.3690   -20.3320     1.9170 c6         1 UVN       0.177800
      7 C10        -23.0920   -20.6240     3.3730 c6         1 UVN       0.117000
      8 C12        -23.2110   -23.0270     2.7590 c          1 UVN       0.715500
      9 C13        -23.9330   -22.6480     1.4770 c6         1 UVN       0.100800
     10 C16        -24.1850   -21.9820    -1.9530 ca         1 UVN      -0.050500
     11 C17        -23.2990   -22.0030    -3.0140 ca         1 UVN      -0.099500
     12 N08        -24.3950   -21.2670     1.4730 n3         1 UVN      -0.716500
     13 N11        -22.8180   -22.0330     3.5640 ns         1 UVN      -0.569900
     14 O07        -26.3620   -21.8670     0.0590 o          1 UVN      -0.595300
     15 S06        -25.3770   -20.8140     0.2180 sy         1 UVN       1.300200
     16 H1         -21.0880   -19.9050    -4.6220 h4         1 UVN      -0.002800
     17 H4         -22.1620   -18.8080    -2.8450 ha         1 UVN       0.149500
     18 H5         -23.7360   -18.7510    -0.9560 ha         1 UVN       0.158500
     19 H6         -22.4560   -20.4350     1.3170 h1         1 UVN       0.065200
     20 H7         -23.7210   -19.3070     1.8280 h1         1 UVN       0.065200
     21 H8         -22.2230   -20.0500     3.6960 h1         1 UVN       0.054700
     22 H9         -23.9440   -20.3110     3.9810 h1         1 UVN       0.054700
     23 H10        -24.7780   -23.3270     1.3730 h1         1 UVN       0.086200
     24 H11        -23.2340   -22.8500     0.6540 h1         1 UVN       0.086200
     25 H12        -24.7610   -22.8650    -1.7130 ha         1 UVN       0.158500
     26 H13        -23.1820   -22.9070    -3.5960 ha         1 UVN       0.149500
     27 H14        -22.3550   -22.3060     4.4190 hn         1 UVN       0.324500
     28 O1         -21.3650   -21.8340    -5.1330 o          1 UVN      -0.497100
     29 O14        -22.9830   -24.2050     2.9810 o          1 UVN      -0.631500
     30 O15        -25.7980   -19.4510     0.4760 o          1 UVN      -0.595300
@<TRIPOS>BOND
     1     1     2 1   
     2     1    16 1   
     3     1    28 2   
     4     2     3 ar  
     5     2    11 ar  
     6     3     4 ar  
     7     3    17 1   
     8     4     5 ar  
     9     4    18 1   
    10     5    10 ar  
    11     5    15 1   
    12     6     7 1   
    13     6    12 1   
    14     6    19 1   
    15     6    20 1   
    16     7    13 1   
    17     7    21 1   
    18     7    22 1   
    19     8     9 1   
    20     8    13 1   
    21     8    29 2   
    22     9    12 1   
    23     9    23 1   
    24     9    24 1   
    25    10    11 ar  
    26    10    25 1   
    27    11    26 1   
    28    12    15 1   
    29    13    27 1   
    30    14    15 2   
    31    15    30 2   
@<TRIPOS>SUBSTRUCTURE
     1 UVN         1 TEMP              0 ****  ****    0 ROOT
