@<TRIPOS>MOLECULE
UVO
   18    18     1     0     0
SMALL
No Charge or Current Charge


@<TRIPOS>ATOM
      1 O1          42.6240    26.8830    25.5480 oh         1 UVO      -0.496100
      2 C1          39.0750    27.7960    25.3840 ca         1 UVO       0.237100
      3 C5          41.3330    26.9320    25.1150 ca         1 UVO       0.267100
      4 C6          40.4140    27.7260    25.8160 ca         1 UVO      -0.340000
      5 C4          40.9290    26.2000    23.9800 ca         1 UVO      -0.132600
      6 C3          39.5910    26.2770    23.5500 ca         1 UVO       0.019000
      7 C2          38.6720    27.0720    24.2540 ca         1 UVO      -0.202000
      8 N           41.8430    25.4040    23.2650 ne         1 UVO       0.041900
      9 C           38.4320    29.3390    27.2000 c3         1 UVO       0.147900
     10 H1          42.6940    27.4530    26.3410 ho         1 UVO       0.470000
     11 H2          40.7470    28.2800    26.6870 ha         1 UVO       0.123000
     12 H3          39.2650    25.7200    22.6740 ha         1 UVO       0.145000
     13 H4          37.6390    27.1280    23.9210 ha         1 UVO       0.139000
     14 H5          37.5360    29.8650    27.5520 h1         1 UVO       0.050033
     15 H6          38.7920    28.6980    28.0150 h1         1 UVO       0.050033
     16 H7          39.2010    30.0900    26.9770 h1         1 UVO       0.050033
     17 O           38.1250    28.5580    26.0310 os         1 UVO      -0.336100
     18 O2          41.7620    24.1800    23.4450 o          1 UVO      -0.232300
@<TRIPOS>BOND
     1     1     3 1   
     2     1    10 1   
     3     2     4 ar  
     4     2     7 ar  
     5     2    17 1   
     6     3     4 ar  
     7     3     5 ar  
     8     4    11 1   
     9     5     6 ar  
    10     5     8 1   
    11     6     7 ar  
    12     6    12 1   
    13     7    13 1   
    14     8    18 2   
    15     9    14 1   
    16     9    15 1   
    17     9    16 1   
    18     9    17 1   
@<TRIPOS>SUBSTRUCTURE
     1 UVO         1 TEMP              0 ****  ****    0 ROOT
