@<TRIPOS>MOLECULE
UVO
   18    18     1     0     0
SMALL
abcg2


@<TRIPOS>ATOM
      1 O1          42.6110    26.8630    25.6470 oh         1 UVO      -0.496100
      2 C1          39.0880    27.7730    25.4360 ca         1 UVO       0.237100
      3 C5          41.3320    26.9220    25.2420 ca         1 UVO       0.267100
      4 C6          40.4060    27.7440    25.8810 ca         1 UVO      -0.340000
      5 C4          40.9310    26.1240    24.1420 ca         1 UVO      -0.132600
      6 C3          39.5860    26.1770    23.7130 ca         1 UVO       0.019000
      7 C2          38.6760    26.9780    24.3390 ca         1 UVO      -0.202000
      8 N           41.9000    25.3300    23.5470 ne         1 UVO       0.041900
      9 C           38.4630    29.3750    27.0990 c3         1 UVO       0.147900
     10 H1          42.7550    27.4520    26.4020 ho         1 UVO       0.470000
     11 H2          40.7320    28.3460    26.7170 ha         1 UVO       0.123000
     12 H3          39.2980    25.5610    22.8730 ha         1 UVO       0.145000
     13 H4          37.6430    27.0270    24.0200 ha         1 UVO       0.139000
     14 H5          37.5400    29.8820    27.3640 h1         1 UVO       0.050033
     15 H6          38.8190    28.7810    27.9420 h1         1 UVO       0.050033
     16 H7          39.2200    30.1050    26.8090 h1         1 UVO       0.050033
     17 O           38.1320    28.5270    25.9890 os         1 UVO      -0.336100
     18 O2          41.5400    24.6350    22.5900 o          1 UVO      -0.232300
@<TRIPOS>BOND
     1     1     3 1   
     2     1    10 1   
     3     2     4 ar  
     4     2     7 ar  
     5     2    17 1   
     6     3     4 ar  
     7     3     5 ar  
     8     4    11 1   
     9     5     6 ar  
    10     5     8 1   
    11     6     7 ar  
    12     6    12 1   
    13     7    13 1   
    14     8    18 2   
    15     9    14 1   
    16     9    15 1   
    17     9    16 1   
    18     9    17 1   
@<TRIPOS>SUBSTRUCTURE
     1 UVO         1 TEMP              0 ****  ****    0 ROOT
