@<TRIPOS>MOLECULE
UVP
   36    37     1     0     0
SMALL
abcg2


@<TRIPOS>ATOM
      1 OP           3.8730    -2.5170    -0.4370 o          1 UVP      -0.916833
      2 P            2.8920    -1.7600     0.4600 p5         1 UVP       1.128100
      3 OP1          1.6510    -2.5830     0.8490 o          1 UVP      -0.916833
      4 OP2          3.5370    -1.0120     1.6260 o          1 UVP      -0.916833
      5 C6           2.1240    -0.4790    -0.6170 c2         1 UVP      -0.179600
      6 C5           1.8930     0.7850    -0.2690 c2         1 UVP      -0.365200
      7 C4           0.9970     1.7280    -1.0260 c5         1 UVP       0.165500
      8 O4          -0.1120     1.0240    -1.6300 os         1 UVP      -0.435000
      9 C3           0.3290     2.7560    -0.1090 c5         1 UVP       0.104300
     10 O3          -0.2250     3.8380    -0.8040 oh         1 UVP      -0.721000
     11 C2          -0.8270     1.9080     0.4230 c5         1 UVP       0.126300
     12 O2          -1.9230     2.5720     0.9490 os         1 UVP      -0.447000
     13 CB          -1.6710     3.1870     2.1940 c3         1 UVP       0.149900
     14 C1          -1.2470     1.1680    -0.8490 c5         1 UVP       0.304300
     15 N1          -1.8280    -0.1670    -0.5420 na         1 UVP      -0.237200
     16 C10         -3.1320    -0.4540    -0.7480 ca         1 UVP       0.822800
     17 O5          -3.8690     0.5120    -1.2140 oh         1 UVP      -0.610300
     18 N3          -3.6580    -1.6220    -0.5010 nb         1 UVP      -0.841000
     19 C9          -2.8920    -2.5850    -0.0180 ca         1 UVP       0.702300
     20 O1          -3.5030    -3.7170     0.1940 oh         1 UVP      -0.610300
     21 C8          -1.5260    -2.3770     0.2430 ca         1 UVP      -0.264000
     22 C7          -1.0370    -1.1460    -0.0320 ca         1 UVP       0.107700
     23 H3           1.6730    -0.8400    -1.5420 ha         1 UVP       0.128000
     24 H5           2.3380     1.1710     0.6460 ha         1 UVP       0.202000
     25 H7           1.5360     2.2230    -1.8400 h1         1 UVP       0.075700
     26 H8           1.0120     3.0800     0.6850 h1         1 UVP       0.078700
     27 H9           0.4930     4.3720    -1.1580 ho         1 UVP       0.507000
     28 H10         -0.4050     1.1980     1.1540 h1         1 UVP       0.088700
     29 H11         -1.2830     2.4710     2.9270 h1         1 UVP       0.036033
     30 H12         -0.9600     4.0140     2.1110 h1         1 UVP       0.036033
     31 H13         -2.6160     3.5810     2.5610 h1         1 UVP       0.036033
     32 H14         -2.0170     1.7240    -1.3830 h2         1 UVP       0.109700
     33 H16         -0.8630    -3.1360     0.6340 ha         1 UVP       0.242000
     34 H17          0.0040    -0.9190     0.1510 h4         1 UVP       0.268000
     35 H4          -4.7810     0.2050    -1.3390 ho         1 UVP       0.525000
     36 H6          -2.9060    -4.3900     0.5510 ho         1 UVP       0.519000
@<TRIPOS>BOND
     1     1     2 1   
     2     2     3 1   
     3     2     4 1   
     4     2     5 1   
     5     5     6 2   
     6     5    23 1   
     7     6     7 1   
     8     6    24 1   
     9     7     8 1   
    10     7     9 1   
    11     7    25 1   
    12     8    14 1   
    13     9    10 1   
    14     9    11 1   
    15     9    26 1   
    16    10    27 1   
    17    11    12 1   
    18    11    14 1   
    19    11    28 1   
    20    12    13 1   
    21    13    29 1   
    22    13    30 1   
    23    13    31 1   
    24    14    15 1   
    25    14    32 1   
    26    15    16 1   
    27    15    22 2   
    28    16    17 1   
    29    16    18 ar  
    30    17    35 1   
    31    18    19 ar  
    32    19    20 1   
    33    19    21 ar  
    34    20    36 1   
    35    21    22 ar  
    36    21    33 1   
    37    22    34 1   
@<TRIPOS>SUBSTRUCTURE
     1 UVP         1 TEMP              0 ****  ****    0 ROOT
