@<TRIPOS>MOLECULE
UVP
   36    37     1     0     0
SMALL
No Charge or Current Charge


@<TRIPOS>ATOM
      1 OP           4.4550    -2.2120    -0.6240 o          1 UVP      -0.916833
      2 P            3.4360    -1.6760     0.3210 p5         1 UVP       1.128100
      3 OP1          2.4280    -2.7410     0.5850 o          1 UVP      -0.916833
      4 OP2          3.9490    -1.1490     1.6180 o          1 UVP      -0.916833
      5 C6           2.4480    -0.3390    -0.5520 c2         1 UVP      -0.179600
      6 C5           1.8160     0.7270    -0.0130 c2         1 UVP      -0.365200
      7 C4           1.0360     1.6790    -0.9190 c5         1 UVP       0.165500
      8 O4          -0.0100     0.8920    -1.5410 os         1 UVP      -0.435000
      9 C3           0.2870     2.7720    -0.0820 c5         1 UVP       0.104300
     10 O3          -0.1810     3.8470    -0.9270 oh         1 UVP      -0.721000
     11 C2          -0.8630     1.8650     0.4750 c5         1 UVP       0.126300
     12 O2          -1.9890     2.6700     0.9340 os         1 UVP      -0.447000
     13 CB          -1.7800     3.4920     2.0970 c3         1 UVP       0.149900
     14 C1          -1.2500     1.0630    -0.8030 c5         1 UVP       0.304300
     15 N1          -1.8770    -0.2460    -0.5680 na         1 UVP      -0.237200
     16 C10         -3.2520    -0.4580    -0.5680 ca         1 UVP       0.822800
     17 O5          -4.0020     0.5860    -0.9190 oh         1 UVP      -0.610300
     18 N3          -3.9430    -1.5570    -0.3070 nb         1 UVP      -0.841000
     19 C9          -3.2050    -2.6210     0.0030 ca         1 UVP       0.702300
     20 O1          -3.9080    -3.7370     0.2730 oh         1 UVP      -0.610300
     21 C8          -1.8090    -2.5980     0.0390 ca         1 UVP      -0.264000
     22 C7          -1.1400    -1.3960    -0.2580 ca         1 UVP       0.107700
     23 H3           2.4130    -0.5360    -1.6210 ha         1 UVP       0.128000
     24 H5           1.8820     0.8940     1.0640 ha         1 UVP       0.202000
     25 H7           1.6810     2.1150    -1.6960 h1         1 UVP       0.075700
     26 H8           0.9200     3.1600     0.7290 h1         1 UVP       0.078700
     27 H9           0.6090     4.3640    -1.2120 ho         1 UVP       0.507000
     28 H10         -0.5230     1.2010     1.2820 h1         1 UVP       0.088700
     29 H11         -1.4710     2.8820     2.9560 h1         1 UVP       0.036033
     30 H12         -1.0080     4.2500     1.9130 h1         1 UVP       0.036033
     31 H13         -2.7080     4.0140     2.3660 h1         1 UVP       0.036033
     32 H14         -1.9330     1.6670    -1.4140 h2         1 UVP       0.109700
     33 H16         -1.2430    -3.4910     0.2880 ha         1 UVP       0.242000
     34 H17         -0.0480    -1.3330    -0.2490 h4         1 UVP       0.268000
     35 H4          -4.8930     0.1920    -0.8530 ho         1 UVP       0.525000
     36 H6          -3.2530    -4.4320     0.4800 ho         1 UVP       0.519000
@<TRIPOS>BOND
     1     1     2 1   
     2     2     3 1   
     3     2     4 1   
     4     2     5 1   
     5     5     6 2   
     6     5    23 1   
     7     6     7 1   
     8     6    24 1   
     9     7     8 1   
    10     7     9 1   
    11     7    25 1   
    12     8    14 1   
    13     9    10 1   
    14     9    11 1   
    15     9    26 1   
    16    10    27 1   
    17    11    12 1   
    18    11    14 1   
    19    11    28 1   
    20    12    13 1   
    21    13    29 1   
    22    13    30 1   
    23    13    31 1   
    24    14    15 1   
    25    14    32 1   
    26    15    16 1   
    27    15    22 2   
    28    16    17 1   
    29    16    18 ar  
    30    17    35 1   
    31    18    19 ar  
    32    19    20 1   
    33    19    21 ar  
    34    20    36 1   
    35    21    22 ar  
    36    21    33 1   
    37    22    34 1   
@<TRIPOS>SUBSTRUCTURE
     1 UVP         1 TEMP              0 ****  ****    0 ROOT
