@<TRIPOS>MOLECULE
UVQ
   36    38     1     0     0
SMALL
bcc


@<TRIPOS>ATOM
      1 C02         13.4800    20.4060     0.7180 ca         1 UVQ       0.142900
      2 C03         13.2520    21.4240    -0.1870 ca         1 UVQ      -0.167000
      3 C04         14.2650    21.7670    -1.0690 ca         1 UVQ      -0.070000
      4 C05         15.4900    21.1130    -1.0100 ca         1 UVQ       0.072600
      5 C09         17.9870    22.6990     0.1500 ca         1 UVQ      -0.273500
      6 C10         19.3270    22.3600     0.2700 ca         1 UVQ      -0.046500
      7 C11         19.8330    22.0830     1.5300 ca         1 UVQ      -0.102500
      8 C12         19.0070    22.1430     2.6480 ca         1 UVQ      -0.151600
      9 C13         17.6660    22.4960     2.5110 ca         1 UVQ      -0.102500
     10 C14         17.1500    22.7800     1.2610 ca         1 UVQ      -0.046500
     11 C15         19.5810    21.8350     3.9740 c          1 UVQ       0.577500
     12 C18         17.4420    20.4330    -2.4050 c6         1 UVQ       0.216800
     13 C19         17.2490    19.0940    -1.7020 c6         1 UVQ      -0.094400
     14 C20         16.9750    19.3020    -0.2160 c6         1 UVQ      -0.037100
     15 C21         15.6900    20.0610    -0.1120 ca         1 UVQ      -0.066300
     16 C22         14.6680    19.7010     0.7530 ca         1 UVQ      -0.164000
     17 F01         12.5110    20.0720     1.5820 f          1 UVQ      -0.137900
     18 N06         16.5740    21.4970    -1.8480 nh         1 UVQ      -0.603900
     19 O08         18.3770    23.1530    -2.4080 o          1 UVQ      -0.599300
     20 O17         16.2470    23.9470    -1.3420 o          1 UVQ      -0.599300
     21 S07         17.2940    22.9510    -1.4640 sy         1 UVQ       1.298200
     22 H1          12.2980    21.9350    -0.2130 ha         1 UVQ       0.159000
     23 H2          14.0960    22.5450    -1.8000 ha         1 UVQ       0.167000
     24 H3          19.9710    22.3120    -0.5970 ha         1 UVQ       0.159500
     25 H4          20.8770    21.8170     1.6430 ha         1 UVQ       0.148500
     26 H5          17.0250    22.5530     3.3810 ha         1 UVQ       0.148500
     27 H6          16.1120    23.0650     1.1600 ha         1 UVQ       0.159500
     28 H7          20.6510    21.5620     3.9580 h4         1 UVQ      -0.004800
     29 H10         17.2340    20.3420    -3.4720 h1         1 UVQ       0.063700
     30 H11         18.4840    20.7330    -2.3080 h1         1 UVQ       0.063700
     31 H12         16.4160    18.5440    -2.1430 hc         1 UVQ       0.058200
     32 H13         18.1450    18.4930    -1.8580 hc         1 UVQ       0.058200
     33 H14         16.8990    18.3490     0.3080 hc         1 UVQ       0.059700
     34 H15         17.7980    19.8560     0.2450 hc         1 UVQ       0.059700
     35 H16         14.8000    18.8810     1.4480 ha         1 UVQ       0.154000
     36 O1          18.9590    21.8700     5.0060 o          1 UVQ      -0.499100
@<TRIPOS>BOND
     1     1     2 ar  
     2     1    16 ar  
     3     1    17 1   
     4     2     3 ar  
     5     2    22 1   
     6     3     4 ar  
     7     3    23 1   
     8     4    15 ar  
     9     4    18 1   
    10     5     6 ar  
    11     5    10 ar  
    12     5    21 1   
    13     6     7 ar  
    14     6    24 1   
    15     7     8 ar  
    16     7    25 1   
    17     8     9 ar  
    18     8    11 1   
    19     9    10 ar  
    20     9    26 1   
    21    10    27 1   
    22    11    28 1   
    23    11    36 2   
    24    12    13 1   
    25    12    18 1   
    26    12    29 1   
    27    12    30 1   
    28    13    14 1   
    29    13    31 1   
    30    13    32 1   
    31    14    15 1   
    32    14    33 1   
    33    14    34 1   
    34    15    16 ar  
    35    16    35 1   
    36    18    21 1   
    37    19    21 2   
    38    20    21 2   
@<TRIPOS>SUBSTRUCTURE
     1 UVQ         1 TEMP              0 ****  ****    0 ROOT
