@<TRIPOS>MOLECULE
UVQ
   36    38     1     0     0
SMALL
No Charge or Current Charge


@<TRIPOS>ATOM
      1 C02         14.0760    19.7930     1.2070 ca         1 UVQ       0.178000
      2 C03         14.0980    21.1650     0.9370 ca         1 UVQ      -0.149000
      3 C04         14.9750    21.6760    -0.0370 ca         1 UVQ      -0.052000
      4 C05         15.8560    20.8250    -0.7530 ca         1 UVQ       0.211000
      5 C09         17.9050    22.9040     0.1530 ca         1 UVQ      -0.273500
      6 C10         18.8310    21.9660     0.6520 ca         1 UVQ      -0.028500
      7 C11         19.1650    21.9600     2.0170 ca         1 UVQ      -0.084500
      8 C12         18.5830    22.8930     2.9000 ca         1 UVQ      -0.151600
      9 C13         17.6610    23.8350     2.3960 ca         1 UVQ      -0.084500
     10 C14         17.3230    23.8430     1.0310 ca         1 UVQ      -0.028500
     11 C15         18.9510    22.8720     4.3610 c          1 UVQ       0.577500
     12 C18         17.5650    20.3950    -2.6010 c6         1 UVQ       0.216800
     13 C19         16.9270    18.9960    -2.6840 c6         1 UVQ      -0.094400
     14 C20         16.6530    18.4480    -1.2730 c6         1 UVQ      -0.037100
     15 C21         15.7870    19.4290    -0.4860 ca         1 UVQ      -0.066300
     16 C22         14.9100    18.9250     0.4950 ca         1 UVQ      -0.146000
     17 F01         13.2340    19.3040     2.1430 f          1 UVQ      -0.173000
     18 N06         16.7830    21.3130    -1.7280 nh         1 UVQ      -0.742300
     19 O08         18.7110    22.8860    -2.3780 o          1 UVQ      -0.528500
     20 O17         16.4070    23.8640    -1.8610 o          1 UVQ      -0.528500
     21 S07         17.4670    22.8840    -1.5980 sy         1 UVQ       1.156600
     22 H1          13.4360    21.8340     1.4810 ha         1 UVQ       0.141000
     23 H2          14.9460    22.7410    -0.2280 ha         1 UVQ       0.149000
     24 H3          19.2860    21.2350    -0.0140 ha         1 UVQ       0.141500
     25 H4          19.8790    21.2260     2.3860 ha         1 UVQ       0.130500
     26 H5          17.2010    24.5650     3.0600 ha         1 UVQ       0.130500
     27 H6          16.6100    24.5790     0.6650 ha         1 UVQ       0.141500
     28 H7          19.6860    22.0940     4.6650 h4         1 UVQ      -0.004800
     29 H10         17.6400    20.8030    -3.6200 h1         1 UVQ       0.063700
     30 H11         18.5890    20.2840    -2.2120 h1         1 UVQ       0.063700
     31 H12         15.9850    19.0560    -3.2470 hc         1 UVQ       0.058200
     32 H13         17.5860    18.3140    -3.2390 hc         1 UVQ       0.058200
     33 H14         16.1590    17.4700    -1.3480 hc         1 UVQ       0.059700
     34 H15         17.6010    18.2860    -0.7410 hc         1 UVQ       0.059700
     35 H16         14.8690    17.8580     0.7010 ha         1 UVQ       0.136000
     36 O1          18.4870    23.6520     5.1880 o          1 UVQ      -0.499100
@<TRIPOS>BOND
     1     1     2 ar  
     2     1    16 ar  
     3     1    17 1   
     4     2     3 ar  
     5     2    22 1   
     6     3     4 ar  
     7     3    23 1   
     8     4    15 ar  
     9     4    18 1   
    10     5     6 ar  
    11     5    10 ar  
    12     5    21 1   
    13     6     7 ar  
    14     6    24 1   
    15     7     8 ar  
    16     7    25 1   
    17     8     9 ar  
    18     8    11 1   
    19     9    10 ar  
    20     9    26 1   
    21    10    27 1   
    22    11    28 1   
    23    11    36 2   
    24    12    13 1   
    25    12    18 1   
    26    12    29 1   
    27    12    30 1   
    28    13    14 1   
    29    13    31 1   
    30    13    32 1   
    31    14    15 1   
    32    14    33 1   
    33    14    34 1   
    34    15    16 ar  
    35    16    35 1   
    36    18    21 1   
    37    19    21 2   
    38    20    21 2   
@<TRIPOS>SUBSTRUCTURE
     1 UVQ         1 TEMP              0 ****  ****    0 ROOT
