@<TRIPOS>MOLECULE
UVS
   16    16     1     0     0
SMALL
abcg2


@<TRIPOS>ATOM
      1 N1         -21.0030    11.2650    25.7180 nc         1 UVS      -0.414000
      2 N          -19.6890    11.5670    25.8000 nc         1 UVS      -0.288000
      3 C          -18.0190    14.7360    24.7460 c3         1 UVS       0.135900
      4 O          -17.9770    14.6000    26.1490 os         1 UVS      -0.444000
      5 C1         -18.0770    13.2720    26.5830 c3         1 UVS       0.124300
      6 C2         -19.4380    12.7010    26.3440 cd         1 UVS       0.352700
      7 C3         -21.7630    12.2090    26.1940 cd         1 UVS       0.655300
      8 N2         -23.1100    12.1910    26.1630 nv         1 UVS      -1.034900
      9 S          -20.8730    13.5710    26.8060 ss         1 UVS      -0.308800
     10 H1         -17.8430    15.7840    24.5120 h1         1 UVS       0.036367
     11 H2         -17.2450    14.1330    24.2580 h1         1 UVS       0.036367
     12 H3         -18.9890    14.4490    24.3260 h1         1 UVS       0.036367
     13 H4         -17.3470    12.6140    26.0950 h1         1 UVS       0.072700
     14 H5         -17.8610    13.2750    27.6540 h1         1 UVS       0.072700
     15 H6         -23.5330    11.3030    25.9420 hn         1 UVS       0.483500
     16 H7         -23.6180    12.7360    26.8390 hn         1 UVS       0.483500
@<TRIPOS>BOND
     1     1     2 1   
     2     1     7 2   
     3     2     6 2   
     4     3     4 1   
     5     3    10 1   
     6     3    11 1   
     7     3    12 1   
     8     4     5 1   
     9     5     6 1   
    10     5    13 1   
    11     5    14 1   
    12     6     9 1   
    13     7     8 1   
    14     7     9 1   
    15     8    15 1   
    16     8    16 1   
@<TRIPOS>SUBSTRUCTURE
     1 UVS         1 TEMP              0 ****  ****    0 ROOT
