@<TRIPOS>MOLECULE
UVS
   16    16     1     0     0
SMALL
No Charge or Current Charge


@<TRIPOS>ATOM
      1 N1         -21.0750    11.4570    25.4470 nc         1 UVS      -0.414000
      2 N          -19.7240    11.7580    25.5420 nc         1 UVS      -0.288000
      3 C          -17.9220    14.7040    24.6600 c3         1 UVS       0.135900
      4 O          -17.9480    14.6350    26.0990 os         1 UVS      -0.444000
      5 C1         -18.1300    13.3090    26.6560 c3         1 UVS       0.124300
      6 C2         -19.5210    12.7760    26.3730 cd         1 UVS       0.352700
      7 C3         -21.7850    12.2630    26.2080 cd         1 UVS       0.655300
      8 N2         -23.1210    12.1230    26.2560 nv         1 UVS      -1.034900
      9 S          -20.9420    13.4600    27.1290 ss         1 UVS      -0.308800
     10 H1         -17.7380    15.7350    24.3330 h1         1 UVS       0.036367
     11 H2         -17.1230    14.0700    24.2530 h1         1 UVS       0.036367
     12 H3         -18.8780    14.3790    24.2310 h1         1 UVS       0.036367
     13 H4         -17.3830    12.6110    26.2560 h1         1 UVS       0.072700
     14 H5         -17.9950    13.3380    27.7450 h1         1 UVS       0.072700
     15 H6         -23.4940    11.2500    25.8990 hn         1 UVS       0.483500
     16 H7         -23.6080    12.5380    27.0430 hn         1 UVS       0.483500
@<TRIPOS>BOND
     1     1     2 1   
     2     1     7 2   
     3     2     6 2   
     4     3     4 1   
     5     3    10 1   
     6     3    11 1   
     7     3    12 1   
     8     4     5 1   
     9     5     6 1   
    10     5    13 1   
    11     5    14 1   
    12     6     9 1   
    13     7     8 1   
    14     7     9 1   
    15     8    15 1   
    16     8    16 1   
@<TRIPOS>SUBSTRUCTURE
     1 UVS         1 TEMP              0 ****  ****    0 ROOT
