@<TRIPOS>MOLECULE
UVT
   32    33     1     0     0
SMALL
abcg2


@<TRIPOS>ATOM
      1 C01         28.2090    21.2790     0.6500 c3         1 UVT      -0.093100
      2 C02         26.9960    20.7970    -0.1330 c5         1 UVT       0.232500
      3 C03         27.1890    19.4270    -0.7950 c5         1 UVT      -0.093400
      4 C04         26.7280    18.4320     0.2710 c5         1 UVT      -0.083400
      5 C05         25.4980    19.1100     0.8690 c5         1 UVT       0.213800
      6 C09         23.7090    21.5540    -0.5970 ca         1 UVT      -0.281500
      7 C10         24.0860    22.3290    -1.6960 ca         1 UVT      -0.032500
      8 C11         23.3810    22.2090    -2.8800 ca         1 UVT      -0.082000
      9 C12         22.3050    21.3210    -2.9670 ca         1 UVT      -0.151600
     10 C13         21.9380    20.5540    -1.8610 ca         1 UVT      -0.082000
     11 C14         22.6390    20.6670    -0.6690 ca         1 UVT      -0.032500
     12 C15         21.5310    21.1830    -4.2150 c          1 UVT       0.574500
     13 N06         25.8380    20.5530     0.7850 n3         1 UVT      -0.775500
     14 O08         23.7860    21.2330     1.9830 o          1 UVT      -0.543000
     15 O16         25.2650    22.9600     0.9520 o          1 UVT      -0.543000
     16 S07         24.6530    21.6530     0.9070 sy         1 UVT       1.200600
     17 O1          21.7520    21.8030    -5.2360 o          1 UVT      -0.506100
     18 H1          27.9800    22.2030     1.1810 hc         1 UVT       0.050033
     19 H2          28.5240    20.5300     1.3790 hc         1 UVT       0.050033
     20 H3          29.0390    21.4680    -0.0350 hc         1 UVT       0.050033
     21 H4          26.7220    21.5480    -0.8720 h1         1 UVT       0.053700
     22 H5          26.5440    19.3520    -1.6740 hc         1 UVT       0.055200
     23 H6          28.2190    19.2740    -1.1120 hc         1 UVT       0.055200
     24 H7          26.4850    17.4520    -0.1370 hc         1 UVT       0.058200
     25 H8          27.4960    18.3020     1.0360 hc         1 UVT       0.058200
     26 H9          24.6100    18.8870     0.2730 h1         1 UVT       0.056700
     27 H10         25.3060    18.8300     1.9020 h1         1 UVT       0.056700
     28 H11         24.9070    23.0270    -1.6130 ha         1 UVT       0.138500
     29 H12         23.6510    22.8050    -3.7410 ha         1 UVT       0.129000
     30 H13         21.0980    19.8740    -1.9330 ha         1 UVT       0.129000
     31 H14         22.3500    20.0900     0.1980 ha         1 UVT       0.138500
     32 H15         20.7020    20.4540    -4.1660 h4         1 UVT      -0.003800
@<TRIPOS>BOND
     1     1     2 1   
     2     1    18 1   
     3     1    19 1   
     4     1    20 1   
     5     2     3 1   
     6     2    13 1   
     7     2    21 1   
     8     3     4 1   
     9     3    22 1   
    10     3    23 1   
    11     4     5 1   
    12     4    24 1   
    13     4    25 1   
    14     5    13 1   
    15     5    26 1   
    16     5    27 1   
    17     6     7 ar  
    18     6    11 ar  
    19     6    16 1   
    20     7     8 ar  
    21     7    28 1   
    22     8     9 ar  
    23     8    29 1   
    24     9    10 ar  
    25     9    12 1   
    26    10    11 ar  
    27    10    30 1   
    28    11    31 1   
    29    12    17 2   
    30    12    32 1   
    31    13    16 1   
    32    14    16 2   
    33    15    16 2   
@<TRIPOS>SUBSTRUCTURE
     1 UVT         1 TEMP              0 ****  ****    0 ROOT
