@<TRIPOS>MOLECULE
UVT
   32    33     1     0     0
SMALL
No Charge or Current Charge


@<TRIPOS>ATOM
      1 C01         27.8690    21.1820     1.8270 c3         1 UVT      -0.093100
      2 C02         27.5210    20.5210     0.4760 c5         1 UVT       0.232500
      3 C03         27.6850    18.9850     0.5050 c5         1 UVT      -0.093400
      4 C04         27.0370    18.5750    -0.8420 c5         1 UVT      -0.083400
      5 C05         25.9890    19.6970    -1.1020 c5         1 UVT       0.213800
      6 C09         23.8400    21.7240    -0.9630 ca         1 UVT      -0.281500
      7 C10         23.7980    22.0830    -2.3270 ca         1 UVT      -0.032500
      8 C11         22.6650    21.7790    -3.1010 ca         1 UVT      -0.082000
      9 C12         21.5610    21.1130    -2.5250 ca         1 UVT      -0.151600
     10 C13         21.6100    20.7550    -1.1620 ca         1 UVT      -0.082000
     11 C14         22.7410    21.0570    -0.3850 ca         1 UVT      -0.032500
     12 C15         20.3410    20.7810    -3.3440 c          1 UVT       0.574500
     13 N06         26.1040    20.5960     0.0710 n3         1 UVT      -0.775500
     14 O08         24.8480    22.3470     1.4140 o          1 UVT      -0.543000
     15 O16         26.1620    23.0270    -0.6930 o          1 UVT      -0.543000
     16 S07         25.2970    22.0950     0.0400 sy         1 UVT       1.200600
     17 O1          20.2270    21.0590    -4.5340 o          1 UVT      -0.506100
     18 H1          27.7880    22.2730     1.7730 hc         1 UVT       0.050033
     19 H2          27.2030    20.8300     2.6250 hc         1 UVT       0.050033
     20 H3          28.8980    20.9450     2.1210 hc         1 UVT       0.050033
     21 H4          28.1710    20.9650    -0.2930 h1         1 UVT       0.053700
     22 H5          28.7340    18.6750     0.5780 hc         1 UVT       0.055200
     23 H6          27.1510    18.5430     1.3540 hc         1 UVT       0.055200
     24 H7          27.7770    18.5460    -1.6500 hc         1 UVT       0.058200
     25 H8          26.5750    17.5830    -0.7890 hc         1 UVT       0.058200
     26 H9          26.2240    20.2260    -2.0360 h1         1 UVT       0.056700
     27 H10         24.9760    19.2820    -1.2010 h1         1 UVT       0.056700
     28 H11         24.6390    22.5940    -2.7930 ha         1 UVT       0.138500
     29 H12         22.6490    22.0620    -4.1520 ha         1 UVT       0.129000
     30 H13         20.7700    20.2390    -0.7000 ha         1 UVT       0.129000
     31 H14         22.7630    20.7670     0.6650 ha         1 UVT       0.138500
     32 H15         19.5230    20.2550    -2.8040 h4         1 UVT      -0.003800
@<TRIPOS>BOND
     1     1     2 1   
     2     1    18 1   
     3     1    19 1   
     4     1    20 1   
     5     2     3 1   
     6     2    13 1   
     7     2    21 1   
     8     3     4 1   
     9     3    22 1   
    10     3    23 1   
    11     4     5 1   
    12     4    24 1   
    13     4    25 1   
    14     5    13 1   
    15     5    26 1   
    16     5    27 1   
    17     6     7 ar  
    18     6    11 ar  
    19     6    16 1   
    20     7     8 ar  
    21     7    28 1   
    22     8     9 ar  
    23     8    29 1   
    24     9    10 ar  
    25     9    12 1   
    26    10    11 ar  
    27    10    30 1   
    28    11    31 1   
    29    12    17 2   
    30    12    32 1   
    31    13    16 1   
    32    14    16 2   
    33    15    16 2   
@<TRIPOS>SUBSTRUCTURE
     1 UVT         1 TEMP              0 ****  ****    0 ROOT
