@<TRIPOS>MOLECULE
UVV
   20    20     1     0     0
SMALL
No Charge or Current Charge


@<TRIPOS>ATOM
      1 N1         -21.2070    12.2210    25.8500 n          1 UVV      -0.259000
      2 C4         -19.2190    13.6710    25.5890 cc         1 UVV       0.024800
      3 C5         -20.1530    12.6410    24.9970 c          1 UVV       0.534200
      4 C6         -22.1720    11.2140    25.3240 c3         1 UVV       0.075300
      5 N          -18.1900    14.0920    24.7610 nv         1 UVV      -0.912000
      6 O          -20.0110    12.1960    23.8570 o          1 UVV      -0.581000
      7 C1         -21.3460    12.7180    27.1600 cc         1 UVV       0.021400
      8 C2         -20.4660    13.6610    27.6600 cd         1 UVV      -0.242000
      9 C3         -19.3800    14.1540    26.8630 cd         1 UVV      -0.205000
     10 H1         -23.2000    11.5580    25.4930 h1         1 UVV       0.053033
     11 H2         -22.0530    11.0480    24.2470 h1         1 UVV       0.053033
     12 H3         -22.0220    10.2590    25.8420 h1         1 UVV       0.053033
     13 H4         -17.5000    14.7770    25.0690 hn         1 UVV       0.453500
     14 H5         -18.0980    13.7040    23.8220 hn         1 UVV       0.453500
     15 H6         -22.4170    12.6090    29.0470 hc         1 UVV       0.052033
     16 H7         -23.4520    12.5020    27.6220 hc         1 UVV       0.052033
     17 H8         -22.4530    11.1150    28.1130 hc         1 UVV       0.052033
     18 H9         -20.5950    14.0370    28.6740 ha         1 UVV       0.192000
     19 H10        -18.6930    14.8950    27.2660 ha         1 UVV       0.185000
     20 C          -22.4770    12.2070    28.0280 c3         1 UVV      -0.054900
@<TRIPOS>BOND
     1     1     3 1   
     2     1     4 1   
     3     1     7 1   
     4     2     3 1   
     5     2     5 1   
     6     2     9 2   
     7     3     6 2   
     8     4    10 1   
     9     4    11 1   
    10     4    12 1   
    11     5    13 1   
    12     5    14 1   
    13     7     8 2   
    14     7    20 1   
    15     8     9 1   
    16     8    18 1   
    17     9    19 1   
    18    15    20 1   
    19    16    20 1   
    20    17    20 1   
@<TRIPOS>SUBSTRUCTURE
     1 UVV         1 TEMP              0 ****  ****    0 ROOT
