@<TRIPOS>MOLECULE
UVV
   20    20     1     0     0
SMALL
bcc


@<TRIPOS>ATOM
      1 N1         -21.1890    12.2590    25.8920 n          1 UVV      -0.326000
      2 C4         -19.2550    13.6630    25.5680 cc         1 UVV       0.024800
      3 C5         -20.1610    12.6480    25.0630 c          1 UVV       0.676700
      4 C6         -22.0730    11.2420    25.3320 c3         1 UVV       0.075300
      5 N          -18.2820    14.0920    24.6910 nv         1 UVV      -0.801600
      6 O          -20.0250    12.1440    23.9450 o          1 UVV      -0.656500
      7 C1         -21.3790    12.7640    27.1600 cc         1 UVV       0.021400
      8 C2         -20.5120    13.7010    27.6230 cd         1 UVV      -0.192000
      9 C3         -19.4380    14.1550    26.8260 cd         1 UVV      -0.155000
     10 H1         -22.8990    11.0480    26.0050 h1         1 UVV       0.053033
     11 H2         -22.4800    11.5760    24.3810 h1         1 UVV       0.053033
     12 H3         -21.5330    10.3110    25.1710 h1         1 UVV       0.053033
     13 H4         -17.4910    14.5450    25.1200 hn         1 UVV       0.398300
     14 H5         -17.9990    13.4040    24.0100 hn         1 UVV       0.398300
     15 H6         -22.4940    12.7670    28.9590 hc         1 UVV       0.052033
     16 H7         -23.4890    12.4890    27.5370 hc         1 UVV       0.052033
     17 H8         -22.4740    11.1970    28.1690 hc         1 UVV       0.052033
     18 H9         -20.6490    14.0990    28.6180 ha         1 UVV       0.142000
     19 H10        -18.7610    14.9020    27.2230 ha         1 UVV       0.135000
     20 C          -22.5200    12.2730    27.9910 c3         1 UVV      -0.054900
@<TRIPOS>BOND
     1     1     3 1   
     2     1     4 1   
     3     1     7 1   
     4     2     3 1   
     5     2     5 1   
     6     2     9 2   
     7     3     6 2   
     8     4    10 1   
     9     4    11 1   
    10     4    12 1   
    11     5    13 1   
    12     5    14 1   
    13     7     8 2   
    14     7    20 1   
    15     8     9 1   
    16     8    18 1   
    17     9    19 1   
    18    15    20 1   
    19    16    20 1   
    20    17    20 1   
@<TRIPOS>SUBSTRUCTURE
     1 UVV         1 TEMP              0 ****  ****    0 ROOT
