@<TRIPOS>MOLECULE
UVY
   22    22     1     0     0
SMALL
No Charge or Current Charge


@<TRIPOS>ATOM
      1 N1         -19.9820    11.4220    26.4900 nc         1 UVY      -0.528800
      2 C4         -23.5180    12.5860    26.5230 c3         1 UVY       0.003900
      3 C5         -23.9700    12.6740    27.9960 c3         1 UVY       0.163600
      4 C6         -21.2740    11.2780    26.7140 cd         1 UVY       0.242900
      5 N          -19.9010    12.7100    26.0000 na         1 UVY       0.130800
      6 C          -17.9750    14.1540    26.7300 c3         1 UVY      -0.114100
      7 O          -25.3940    12.8200    28.0690 oh         1 UVY      -0.662000
      8 C1         -18.5960    13.2800    25.6220 c3         1 UVY       0.087600
      9 C2         -21.1310    13.3540    25.9210 cc         1 UVY      -0.176000
     10 C3         -22.0240    12.4290    26.3850 cd         1 UVY      -0.199300
     11 H1         -23.8500    13.4880    25.9940 hc         1 UVY       0.059200
     12 H2         -24.0240    11.7390    26.0440 hc         1 UVY       0.059200
     13 H3         -23.6540    11.7650    28.5250 h1         1 UVY       0.015700
     14 H4         -23.4760    13.5310    28.4730 h1         1 UVY       0.015700
     15 H5         -21.6400    10.3390    27.1110 h4         1 UVY       0.037100
     16 H6         -17.0090    14.5560    26.4010 hc         1 UVY       0.048033
     17 H7         -18.6340    14.9950    26.9740 hc         1 UVY       0.048033
     18 H8         -17.8110    13.5640    27.6400 hc         1 UVY       0.048033
     19 H9         -25.6260    12.8750    29.0230 ho         1 UVY       0.442000
     20 H10        -17.9090    12.4610    25.3750 h1         1 UVY       0.064700
     21 H11        -18.7330    13.8850    24.7170 h1         1 UVY       0.064700
     22 H12        -21.2530    14.3680    25.5600 h4         1 UVY       0.149000
@<TRIPOS>BOND
     1     1     4 2   
     2     1     5 1   
     3     2     3 1   
     4     2    10 1   
     5     2    11 1   
     6     2    12 1   
     7     3     7 1   
     8     3    13 1   
     9     3    14 1   
    10     4    10 1   
    11     4    15 1   
    12     5     8 1   
    13     5     9 1   
    14     6     8 1   
    15     6    16 1   
    16     6    17 1   
    17     6    18 1   
    18     7    19 1   
    19     8    20 1   
    20     8    21 1   
    21     9    10 2   
    22     9    22 1   
@<TRIPOS>SUBSTRUCTURE
     1 UVY         1 TEMP              0 ****  ****    0 ROOT
