@<TRIPOS>MOLECULE
UVY
   22    22     1     0     0
SMALL
abcg2


@<TRIPOS>ATOM
      1 N1         -20.1920    11.5960    25.1000 nc         1 UVY      -0.528800
      2 C4         -23.3930    12.0080    26.9150 c3         1 UVY       0.003900
      3 C5         -23.7150    13.1640    27.8430 c3         1 UVY       0.163600
      4 C6         -21.4470    11.2680    25.3500 cd         1 UVY       0.242900
      5 N          -19.9200    12.6040    25.9190 na         1 UVY       0.130800
      6 C          -18.4210    14.3200    26.8920 c3         1 UVY      -0.114100
      7 O          -25.0340    13.0000    28.3150 oh         1 UVY      -0.662000
      8 C1         -18.5980    13.2080    25.8800 c3         1 UVY       0.087600
      9 C2         -20.9770    12.9300    26.6890 cc         1 UVY      -0.176000
     10 C3         -22.0090    12.0780    26.3520 cd         1 UVY      -0.199300
     11 H1         -24.1190    11.9920    26.0970 hc         1 UVY       0.059200
     12 H2         -23.5240    11.0660    27.4590 hc         1 UVY       0.059200
     13 H3         -22.9960    13.1810    28.6730 h1         1 UVY       0.015700
     14 H4         -23.5980    14.1100    27.2990 h1         1 UVY       0.015700
     15 H5         -21.9190    10.4610    24.8080 h4         1 UVY       0.037100
     16 H6         -17.4070    14.7080    26.8090 hc         1 UVY       0.048033
     17 H7         -19.1060    15.1490    26.7150 hc         1 UVY       0.048033
     18 H8         -18.5560    13.9670    27.9150 hc         1 UVY       0.048033
     19 H9         -25.2290    13.7230    28.9180 ho         1 UVY       0.442000
     20 H10        -17.8640    12.4210    26.0550 h1         1 UVY       0.064700
     21 H11        -18.4300    13.5900    24.8720 h1         1 UVY       0.064700
     22 H12        -20.9310    13.7280    27.4110 h4         1 UVY       0.149000
@<TRIPOS>BOND
     1     1     4 2   
     2     1     5 1   
     3     2     3 1   
     4     2    10 1   
     5     2    11 1   
     6     2    12 1   
     7     3     7 1   
     8     3    13 1   
     9     3    14 1   
    10     4    10 1   
    11     4    15 1   
    12     5     8 1   
    13     5     9 1   
    14     6     8 1   
    15     6    16 1   
    16     6    17 1   
    17     6    18 1   
    18     7    19 1   
    19     8    20 1   
    20     8    21 1   
    21     9    10 2   
    22     9    22 1   
@<TRIPOS>SUBSTRUCTURE
     1 UVY         1 TEMP              0 ****  ****    0 ROOT
