@<TRIPOS>MOLECULE
UVZ
   36    38     1     0     0
SMALL
bcc


@<TRIPOS>ATOM
      1 C02         13.4910    19.6890     0.5590 ca         1 UVZ       0.030400
      2 C03         13.1940    20.7440    -0.2890 ca         1 UVZ      -0.115000
      3 C04         14.1960    21.2680    -1.0890 ca         1 UVZ      -0.087000
      4 C05         15.4870    20.7610    -1.0130 ca         1 UVZ       0.098600
      5 C09         17.9450    22.5740     0.1750 ca         1 UVZ      -0.276500
      6 C10         19.3230    22.4070     0.1420 ca         1 UVZ      -0.046500
      7 C11         19.9850    22.1100     1.3230 ca         1 UVZ      -0.102500
      8 C12         19.2780    21.9870     2.5130 ca         1 UVZ      -0.150600
      9 C13         17.8960    22.1690     2.5300 ca         1 UVZ      -0.102500
     10 C14         17.2230    22.4660     1.3610 ca         1 UVZ      -0.046500
     11 C15         20.0180    21.6720     3.7530 c          1 UVZ       0.577500
     12 C18         17.5680    20.4120    -2.3490 c6         1 UVZ       0.217800
     13 C19         17.4950    19.0100    -1.7560 c6         1 UVZ      -0.093400
     14 C20         17.1400    19.0730    -0.2740 c6         1 UVZ      -0.035100
     15 C21         15.7720    19.6740    -0.1820 ca         1 UVZ      -0.087300
     16 C22         14.7610    19.1340     0.5990 ca         1 UVZ      -0.114000
     17 N06         16.5410    21.3200    -1.7850 nh         1 UVZ      -0.606900
     18 O08         18.0040    23.2800    -2.3500 o          1 UVZ      -0.597800
     19 O17         15.8920    23.6410    -1.0370 o          1 UVZ      -0.597800
     20 S07         17.0620    22.8400    -1.3390 sy         1 UVZ       1.301200
     21 CL1         12.2470    19.0280     1.5670 cl         1 UVZ      -0.102400
     22 H1          12.1920    21.1480    -0.3380 ha         1 UVZ       0.156000
     23 H2          13.9630    22.0700    -1.7740 ha         1 UVZ       0.165000
     24 H3          19.8790    22.5090    -0.7790 ha         1 UVZ       0.160000
     25 H4          21.0610    21.9780     1.3130 ha         1 UVZ       0.148500
     26 H5          17.3450    22.0830     3.4570 ha         1 UVZ       0.148500
     27 H6          16.1520    22.6170     1.3800 ha         1 UVZ       0.160000
     28 H7          21.1070    21.5530     3.6200 h4         1 UVZ      -0.003800
     29 H10         18.5600    20.8140    -2.1480 h1         1 UVZ       0.060200
     30 H11         17.4480    20.3820    -3.4320 h1         1 UVZ       0.060200
     31 H12         16.7470    18.4080    -2.2770 hc         1 UVZ       0.058200
     32 H13         18.4580    18.5240    -1.9150 hc         1 UVZ       0.058200
     33 H14         17.1520    18.0810     0.1780 hc         1 UVZ       0.059200
     34 H15         17.8740    19.6800     0.2650 hc         1 UVZ       0.059200
     35 H16         14.9700    18.2850     1.2370 ha         1 UVZ       0.150000
     36 O1          19.5010    21.5510     4.8360 o          1 UVZ      -0.500100
@<TRIPOS>BOND
     1     1     2 ar  
     2     1    16 ar  
     3     1    21 1   
     4     2     3 ar  
     5     2    22 1   
     6     3     4 ar  
     7     3    23 1   
     8     4    15 ar  
     9     4    17 1   
    10     5     6 ar  
    11     5    10 ar  
    12     5    20 1   
    13     6     7 ar  
    14     6    24 1   
    15     7     8 ar  
    16     7    25 1   
    17     8     9 ar  
    18     8    11 1   
    19     9    10 ar  
    20     9    26 1   
    21    10    27 1   
    22    11    28 1   
    23    11    36 2   
    24    12    13 1   
    25    12    17 1   
    26    12    29 1   
    27    12    30 1   
    28    13    14 1   
    29    13    31 1   
    30    13    32 1   
    31    14    15 1   
    32    14    33 1   
    33    14    34 1   
    34    15    16 ar  
    35    16    35 1   
    36    17    20 1   
    37    18    20 2   
    38    19    20 2   
@<TRIPOS>SUBSTRUCTURE
     1 UVZ         1 TEMP              0 ****  ****    0 ROOT
