@<TRIPOS>MOLECULE
UVZ
   36    38     1     0     0
SMALL
No Charge or Current Charge


@<TRIPOS>ATOM
      1 C02         14.4030    19.1870     1.1790 ca         1 UVZ       0.122000
      2 C03         14.2520    20.5630     0.9780 ca         1 UVZ      -0.097000
      3 C04         15.0150    21.2210    -0.0030 ca         1 UVZ      -0.069000
      4 C05         15.9580    20.5170    -0.7940 ca         1 UVZ       0.237000
      5 C09         17.8000    22.7460     0.1610 ca         1 UVZ      -0.276500
      6 C10         18.8470    21.8910     0.5620 ca         1 UVZ      -0.028500
      7 C11         19.2380    21.8370     1.9110 ca         1 UVZ      -0.084500
      8 C12         18.5920    22.6380     2.8750 ca         1 UVZ      -0.150600
      9 C13         17.5480    23.4980     2.4680 ca         1 UVZ      -0.084500
     10 C14         17.1540    23.5530     1.1200 ca         1 UVZ      -0.028500
     11 C15         19.0210    22.5680     4.3180 c          1 UVZ       0.577500
     12 C18         17.6170    20.3850    -2.7290 c6         1 UVZ       0.217800
     13 C19         17.1440    18.9260    -2.8620 c6         1 UVZ      -0.093400
     14 C20         17.0040    18.2820    -1.4730 c6         1 UVZ      -0.035100
     15 C21         16.0660    19.1130    -0.6000 ca         1 UVZ      -0.087300
     16 C22         15.3020    18.4610     0.3880 ca         1 UVZ      -0.096000
     17 N06         16.7750    21.1600    -1.7770 nh         1 UVZ      -0.745300
     18 O08         18.4940    22.9700    -2.3940 o          1 UVZ      -0.527000
     19 O17         16.1230    23.6570    -1.7310 o          1 UVZ      -0.527000
     20 S07         17.2920    22.7840    -1.5710 sy         1 UVZ       1.159600
     21 Cl1         13.4480    18.3660     2.4070 cl         1 UVZ      -0.194000
     22 H1          13.5410    21.1240     1.5800 ha         1 UVZ       0.138000
     23 H2          14.8510    22.2820    -0.1370 ha         1 UVZ       0.147000
     24 H3          19.3540    21.2610    -0.1670 ha         1 UVZ       0.142000
     25 H4          20.0450    21.1690     2.2040 ha         1 UVZ       0.130500
     26 H5          17.0380    24.1260     3.1960 ha         1 UVZ       0.130500
     27 H6          16.3470    24.2240     0.8300 ha         1 UVZ       0.142000
     28 H7          19.8520    21.8620     4.5420 h4         1 UVZ      -0.003800
     29 H10         18.6640    20.3770    -2.3900 h1         1 UVZ       0.060200
     30 H11         17.5950    20.8490    -3.7270 h1         1 UVZ       0.060200
     31 H12         16.1760    18.9000    -3.3810 hc         1 UVZ       0.058200
     32 H13         17.8510    18.3560    -3.4800 hc         1 UVZ       0.058200
     33 H14         16.6270    17.2560    -1.5790 hc         1 UVZ       0.059200
     34 H15         17.9890    18.2090    -0.9900 hc         1 UVZ       0.059200
     35 H16         15.3990    17.3890     0.5380 ha         1 UVZ       0.132000
     36 O1          18.5070    23.2340     5.2110 o          1 UVZ      -0.500100
@<TRIPOS>BOND
     1     1     2 ar  
     2     1    16 ar  
     3     1    21 1   
     4     2     3 ar  
     5     2    22 1   
     6     3     4 ar  
     7     3    23 1   
     8     4    15 ar  
     9     4    17 1   
    10     5     6 ar  
    11     5    10 ar  
    12     5    20 1   
    13     6     7 ar  
    14     6    24 1   
    15     7     8 ar  
    16     7    25 1   
    17     8     9 ar  
    18     8    11 1   
    19     9    10 ar  
    20     9    26 1   
    21    10    27 1   
    22    11    28 1   
    23    11    36 2   
    24    12    13 1   
    25    12    17 1   
    26    12    29 1   
    27    12    30 1   
    28    13    14 1   
    29    13    31 1   
    30    13    32 1   
    31    14    15 1   
    32    14    33 1   
    33    14    34 1   
    34    15    16 ar  
    35    16    35 1   
    36    17    20 1   
    37    18    20 2   
    38    19    20 2   
@<TRIPOS>SUBSTRUCTURE
     1 UVZ         1 TEMP              0 ****  ****    0 ROOT
