@<TRIPOS>MOLECULE
UW1
   49    51     1     0     0
SMALL
No Charge or Current Charge


@<TRIPOS>ATOM
      1 CAA          8.4850     0.5150     0.1990 c3         1 UW1      -0.095100
      2 CAM          7.1060     1.0600    -0.2020 c3         1 UW1       0.167600
      3 OAP          6.1220     0.0980     0.2130 os         1 UW1      -0.347100
      4 CAR          4.7720     0.2870    -0.0020 ca         1 UW1       0.159100
      5 CAK          3.8930    -0.7110     0.4430 ca         1 UW1      -0.142000
      6 CAH          4.2580     1.4350    -0.6400 ca         1 UW1      -0.186000
      7 CAI          2.8730     1.5700    -0.8290 ca         1 UW1      -0.050000
      8 CAW          2.0010     0.5600    -0.3830 ca         1 UW1      -0.126000
      9 CAL          0.6150     0.6900    -0.5750 ca         1 UW1      -0.023000
     10 CAX          2.5060    -0.5920     0.2610 ca         1 UW1       0.308000
     11 NAN          1.6860    -1.5640     0.7160 nb         1 UW1      -0.669000
     12 CAJ          0.3530    -1.4350     0.5260 ca         1 UW1       0.381900
     13 CAS         -0.2360    -0.3530    -0.1570 ca         1 UW1      -0.203500
     14 CAU         -1.6940    -0.2170    -0.2630 cc         1 UW1       0.364500
     15 NAO         -2.2230     0.9820    -0.1070 nd         1 UW1      -0.523800
     16 NAY         -3.5920     0.7430    -0.0150 na         1 UW1       0.089800
     17 CAZ         -4.5650     1.8780     0.1720 c3         1 UW1       0.123000
     18 CAC         -5.3410     1.7090     1.5080 c3         1 UW1      -0.099767
     19 CAD         -3.8370     3.2570     0.2340 c3         1 UW1      -0.099767
     20 CAB         -5.5630     1.9390    -1.0170 c3         1 UW1      -0.099767
     21 CAT         -3.8620    -0.6400    -0.1150 cd         1 UW1       0.306000
     22 NAF         -5.1080    -1.2040    -0.1020 nv         1 UW1      -1.068000
     23 CAV         -2.6670    -1.2440    -0.3090 cc         1 UW1      -0.357600
     24 CAQ         -2.5070    -2.6780    -0.6040 c          1 UW1       0.658700
     25 OAG         -3.3680    -3.5190    -0.4100 o          1 UW1      -0.656100
     26 NAE         -1.3600    -3.0560    -1.1960 nt         1 UW1      -0.593000
     27 H1           9.2720     1.2190    -0.0990 hc         1 UW1       0.048700
     28 H2           8.5430     0.3730     1.2850 hc         1 UW1       0.048700
     29 H3           8.6790    -0.4450    -0.2920 hc         1 UW1       0.048700
     30 H4           6.9380     2.0270     0.2900 h1         1 UW1       0.033700
     31 H5           7.0730     1.2070    -1.2900 h1         1 UW1       0.033700
     32 H6           4.2920    -1.5900     0.9380 ha         1 UW1       0.146000
     33 H7           4.9120     2.2270    -0.9940 ha         1 UW1       0.118000
     34 H8           2.4820     2.4570    -1.3230 ha         1 UW1       0.115000
     35 H9           0.2090     1.5760    -1.0600 ha         1 UW1       0.126000
     36 H10         -0.2580    -2.2170     0.9740 h4         1 UW1       0.033100
     37 H11         -4.6450     1.6420     2.3530 hc         1 UW1       0.049144
     38 H12         -6.0040     2.5640     1.6850 hc         1 UW1       0.049144
     39 H13         -5.9620     0.8080     1.5110 hc         1 UW1       0.049144
     40 H14         -3.2840     3.4540    -0.6930 hc         1 UW1       0.049144
     41 H15         -4.5550     4.0750     0.3700 hc         1 UW1       0.049144
     42 H16         -3.1300     3.2940     1.0710 hc         1 UW1       0.049144
     43 H17         -6.1940     1.0470    -1.0700 hc         1 UW1       0.049144
     44 H18         -6.2300     2.8050    -0.9230 hc         1 UW1       0.049144
     45 H19         -5.0250     2.0300    -1.9680 hc         1 UW1       0.049144
     46 H20         -5.9140    -0.6810     0.2260 hn         1 UW1       0.482500
     47 H21         -5.1690    -2.2230    -0.0960 hn         1 UW1       0.482500
     48 H22         -0.6720    -2.3680    -1.4560 hn         1 UW1       0.312000
     49 H23         -1.2370    -4.0260    -1.4450 hn         1 UW1       0.312000
@<TRIPOS>BOND
     1     1     2 1   
     2     1    27 1   
     3     1    28 1   
     4     1    29 1   
     5     2     3 1   
     6     2    30 1   
     7     2    31 1   
     8     3     4 1   
     9     4     5 ar  
    10     4     6 ar  
    11     5    10 ar  
    12     5    32 1   
    13     6     7 ar  
    14     6    33 1   
    15     7     8 ar  
    16     7    34 1   
    17     8     9 ar  
    18     8    10 ar  
    19     9    13 ar  
    20     9    35 1   
    21    10    11 ar  
    22    11    12 ar  
    23    12    13 ar  
    24    12    36 1   
    25    13    14 1   
    26    14    15 2   
    27    14    23 1   
    28    15    16 1   
    29    16    17 1   
    30    16    21 1   
    31    17    18 1   
    32    17    19 1   
    33    17    20 1   
    34    18    37 1   
    35    18    38 1   
    36    18    39 1   
    37    19    40 1   
    38    19    41 1   
    39    19    42 1   
    40    20    43 1   
    41    20    44 1   
    42    20    45 1   
    43    21    22 1   
    44    21    23 2   
    45    22    46 1   
    46    22    47 1   
    47    23    24 1   
    48    24    25 2   
    49    24    26 1   
    50    26    48 1   
    51    26    49 1   
@<TRIPOS>SUBSTRUCTURE
     1 UW1         1 TEMP              0 ****  ****    0 ROOT
