@<TRIPOS>MOLECULE
UW1
   49    51     1     0     0
SMALL
abcg2


@<TRIPOS>ATOM
      1 CAA          8.3830     0.5690     0.0360 c3         1 UW1      -0.095100
      2 CAM          6.9990     1.0120    -0.3730 c3         1 UW1       0.167600
      3 OAP          6.0620     0.1040     0.1990 os         1 UW1      -0.347100
      4 CAR          4.7490     0.2860    -0.0040 ca         1 UW1       0.159100
      5 CAK          3.8960    -0.6240     0.5860 ca         1 UW1      -0.142000
      6 CAH          4.2210     1.3490    -0.7780 ca         1 UW1      -0.186000
      7 CAI          2.8690     1.4710    -0.9430 ca         1 UW1      -0.050000
      8 CAW          1.9760     0.5540    -0.3520 ca         1 UW1      -0.126000
      9 CAL          0.5790     0.6360    -0.4990 ca         1 UW1      -0.023000
     10 CAX          2.5060    -0.5060     0.4270 ca         1 UW1       0.308000
     11 NAN          1.6990    -1.4130     1.0350 nb         1 UW1      -0.669000
     12 CAJ          0.4110    -1.3020     0.8790 ca         1 UW1       0.381900
     13 CAS         -0.2250    -0.2960     0.1040 ca         1 UW1      -0.203500
     14 CAU         -1.6870    -0.2230     0.0180 cc         1 UW1       0.364500
     15 NAO         -2.2760     0.9330     0.1960 nd         1 UW1      -0.523800
     16 NAY         -3.6020     0.7100     0.1140 na         1 UW1       0.089800
     17 CAZ         -4.5450     1.8440     0.2330 c3         1 UW1       0.123000
     18 CAC         -5.5250     1.5840     1.3780 c3         1 UW1      -0.099767
     19 CAD         -3.7610     3.1160     0.5490 c3         1 UW1      -0.099767
     20 CAB         -5.2720     2.0450    -1.0990 c3         1 UW1      -0.099767
     21 CAT         -3.8720    -0.5920    -0.1140 cd         1 UW1       0.306000
     22 NAF         -5.1180    -1.1310    -0.1770 nv         1 UW1      -1.068000
     23 CAV         -2.6390    -1.2500    -0.2020 cc         1 UW1      -0.357600
     24 CAQ         -2.5030    -2.6460    -0.6090 c          1 UW1       0.658700
     25 OAG         -3.4540    -3.4290    -0.5440 o          1 UW1      -0.656100
     26 NAE         -1.3020    -3.0390    -1.0760 nt         1 UW1      -0.593000
     27 H1           9.1190     1.2480    -0.3930 hc         1 UW1       0.048700
     28 H2           8.5020     0.5860     1.1190 hc         1 UW1       0.048700
     29 H3           8.6030    -0.4350    -0.3250 hc         1 UW1       0.048700
     30 H4           6.8040     2.0300    -0.0200 h1         1 UW1       0.033700
     31 H5           6.9050     1.0140    -1.4640 h1         1 UW1       0.033700
     32 H6           4.2910    -1.4390     1.1790 ha         1 UW1       0.146000
     33 H7           4.8720     2.0730    -1.2470 ha         1 UW1       0.118000
     34 H8           2.4740     2.2870    -1.5360 ha         1 UW1       0.115000
     35 H9           0.1480     1.4320    -1.0950 ha         1 UW1       0.126000
     36 H10         -0.2030    -2.0340     1.3950 h4         1 UW1       0.033100
     37 H11         -4.9910     1.4780     2.3230 hc         1 UW1       0.049144
     38 H12         -6.2030     2.4330     1.4700 hc         1 UW1       0.049144
     39 H13         -6.1350     0.6940     1.2330 hc         1 UW1       0.049144
     40 H14         -3.0470     3.3650    -0.2340 hc         1 UW1       0.049144
     41 H15         -4.4730     3.9380     0.6310 hc         1 UW1       0.049144
     42 H16         -3.2240     3.0420     1.4930 hc         1 UW1       0.049144
     43 H17         -5.9230     1.2140    -1.3740 hc         1 UW1       0.049144
     44 H18         -5.9060     2.9290    -1.0400 hc         1 UW1       0.049144
     45 H19         -4.5580     2.1920    -1.9090 hc         1 UW1       0.049144
     46 H20         -5.8480    -0.5970    -0.6180 hn         1 UW1       0.482500
     47 H21         -5.1130    -2.1030    -0.4500 hn         1 UW1       0.482500
     48 H22         -0.5920    -2.3750    -1.3350 hn         1 UW1       0.312000
     49 H23         -1.2040    -3.9700    -1.4470 hn         1 UW1       0.312000
@<TRIPOS>BOND
     1     1     2 1   
     2     1    27 1   
     3     1    28 1   
     4     1    29 1   
     5     2     3 1   
     6     2    30 1   
     7     2    31 1   
     8     3     4 1   
     9     4     5 ar  
    10     4     6 ar  
    11     5    10 ar  
    12     5    32 1   
    13     6     7 ar  
    14     6    33 1   
    15     7     8 ar  
    16     7    34 1   
    17     8     9 ar  
    18     8    10 ar  
    19     9    13 ar  
    20     9    35 1   
    21    10    11 ar  
    22    11    12 ar  
    23    12    13 ar  
    24    12    36 1   
    25    13    14 1   
    26    14    15 2   
    27    14    23 1   
    28    15    16 1   
    29    16    17 1   
    30    16    21 1   
    31    17    18 1   
    32    17    19 1   
    33    17    20 1   
    34    18    37 1   
    35    18    38 1   
    36    18    39 1   
    37    19    40 1   
    38    19    41 1   
    39    19    42 1   
    40    20    43 1   
    41    20    44 1   
    42    20    45 1   
    43    21    22 1   
    44    21    23 2   
    45    22    46 1   
    46    22    47 1   
    47    23    24 1   
    48    24    25 2   
    49    24    26 1   
    50    26    48 1   
    51    26    49 1   
@<TRIPOS>SUBSTRUCTURE
     1 UW1         1 TEMP              0 ****  ****    0 ROOT
