@<TRIPOS>MOLECULE
UW2
   51    55     1     0     0
SMALL
abcg2


@<TRIPOS>ATOM
      1 O           -5.5560     1.0390     0.9620 oh         1 UW2      -0.668000
      2 C6          -5.1440     2.0290     0.0350 c3         1 UW2       0.179000
      3 C7          -6.3560     2.7480    -0.5520 c3         1 UW2      -0.101100
      4 C8          -4.2630     3.0020     0.8060 c3         1 UW2      -0.101100
      5 C5          -4.3700     1.3870    -1.1300 c3         1 UW2       0.057600
      6 N3          -3.3040     0.5150    -0.7120 na         1 UW2      -0.011100
      7 C2          -3.4220    -0.7670    -0.3260 ca         1 UW2       0.157500
      8 N1          -4.5530    -1.4730    -0.2500 nb         1 UW2      -0.249000
      9 C1          -4.3440    -2.6980     0.1850 ca         1 UW2       0.203900
     10 N           -3.1960    -3.2490     0.5690 nb         1 UW2      -0.307000
     11 N2          -2.0300     0.9280    -0.6580 nc         1 UW2      -0.512100
     12 C4          -1.3030    -0.0850    -0.2500 cd         1 UW2       0.438500
     13 C3          -2.1390    -1.2140    -0.0090 ca         1 UW2      -0.374900
     14 C           -2.0810    -2.5270     0.5090 ca         1 UW2       0.452900
     15 N5          -0.9490    -3.1020     0.9490 nv         1 UW2      -1.062900
     16 C9           0.1480     0.0530    -0.1040 ca         1 UW2      -0.111900
     17 C14          1.0040    -0.9480    -0.5030 ca         1 UW2      -0.075000
     18 C13          2.3960    -0.8090    -0.3600 ca         1 UW2      -0.121000
     19 C15          3.3180    -1.8120    -0.7520 ca         1 UW2      -0.041000
     20 C16          4.6490    -1.6130    -0.5780 ca         1 UW2      -0.169000
     21 C17          5.0680    -0.3810    -0.0010 ca         1 UW2       0.603300
     22 O1           6.3860    -0.2470     0.1640 os         1 UW2      -0.433300
     23 C18          6.8520     0.9650     0.6890 cx         1 UW2       0.117300
     24 C20          7.1180     2.0940    -0.2430 cx         1 UW2      -0.135400
     25 C19          8.2560     1.3080     0.3510 cx         1 UW2      -0.135400
     26 N4           4.2600     0.5630     0.3640 nb         1 UW2      -0.755000
     27 C12          2.9310     0.3770     0.1920 ca         1 UW2       0.320000
     28 C11          2.0410     1.4020     0.5740 ca         1 UW2      -0.100000
     29 C10          0.6910     1.2450     0.4270 ca         1 UW2      -0.066000
     30 H1          -5.7770     0.2210     0.4970 ho         1 UW2       0.466000
     31 H2          -6.0650     3.5160    -1.2700 hc         1 UW2       0.044700
     32 H3          -7.0190     2.0520    -1.0710 hc         1 UW2       0.044700
     33 H4          -6.9330     3.2350     0.2340 hc         1 UW2       0.044700
     34 H5          -3.3550     2.5210     1.1680 hc         1 UW2       0.044700
     35 H6          -3.9690     3.8450     0.1810 hc         1 UW2       0.044700
     36 H7          -4.8010     3.4030     1.6660 hc         1 UW2       0.044700
     37 H8          -5.0560     0.8020    -1.7480 h1         1 UW2       0.075200
     38 H9          -3.9350     2.1540    -1.7690 h1         1 UW2       0.075200
     39 H10         -5.2160    -3.3390     0.2590 h5         1 UW2       0.047100
     40 H11         -0.1320    -2.5470     1.1340 hn         1 UW2       0.498500
     41 H12         -1.0350    -3.9790     1.4330 hn         1 UW2       0.498500
     42 H13          0.6140    -1.8470    -0.9680 ha         1 UW2       0.123000
     43 H14          2.9530    -2.7350    -1.1870 ha         1 UW2       0.123000
     44 H15          5.3830    -2.3540    -0.8620 ha         1 UW2       0.140000
     45 H16          6.4780     1.1960     1.6800 h1         1 UW2       0.095700
     46 H17          6.9020     1.9430    -1.2930 hc         1 UW2       0.081200
     47 H18          6.9260     3.0980     0.1110 hc         1 UW2       0.081200
     48 H19          8.8660     1.7660     1.1190 hc         1 UW2       0.081200
     49 H20          8.7960     0.6370    -0.3040 hc         1 UW2       0.081200
     50 H21          2.4540     2.3110     0.9890 ha         1 UW2       0.134000
     51 H22          0.0180     2.0370     0.7280 ha         1 UW2       0.130000
@<TRIPOS>BOND
     1     1     2 1   
     2     1    30 1   
     3     2     3 1   
     4     2     4 1   
     5     2     5 1   
     6     3    31 1   
     7     3    32 1   
     8     3    33 1   
     9     4    34 1   
    10     4    35 1   
    11     4    36 1   
    12     5     6 1   
    13     5    37 1   
    14     5    38 1   
    15     6     7 1   
    16     6    11 1   
    17     7     8 ar  
    18     7    13 ar  
    19     8     9 ar  
    20     9    10 ar  
    21     9    39 1   
    22    10    14 ar  
    23    11    12 2   
    24    12    13 1   
    25    12    16 1   
    26    13    14 ar  
    27    14    15 1   
    28    15    40 1   
    29    15    41 1   
    30    16    17 ar  
    31    16    29 ar  
    32    17    18 ar  
    33    17    42 1   
    34    18    19 ar  
    35    18    27 ar  
    36    19    20 ar  
    37    19    43 1   
    38    20    21 ar  
    39    20    44 1   
    40    21    22 1   
    41    21    26 ar  
    42    22    23 1   
    43    23    24 1   
    44    23    25 1   
    45    23    45 1   
    46    24    25 1   
    47    24    46 1   
    48    24    47 1   
    49    25    48 1   
    50    25    49 1   
    51    26    27 ar  
    52    27    28 ar  
    53    28    29 ar  
    54    28    50 1   
    55    29    51 1   
@<TRIPOS>SUBSTRUCTURE
     1 UW2         1 TEMP              0 ****  ****    0 ROOT
