@<TRIPOS>MOLECULE
UW2
   51    55     1     0     0
SMALL
No Charge or Current Charge


@<TRIPOS>ATOM
      1 O           -6.1830     0.7580     0.3220 oh         1 UW2      -0.668000
      2 C6          -5.4700     1.9310    -0.0850 c3         1 UW2       0.179000
      3 C7          -6.5090     2.9050    -0.6840 c3         1 UW2      -0.101100
      4 C8          -4.8210     2.5530     1.1750 c3         1 UW2      -0.101100
      5 C5          -4.4100     1.5580    -1.1690 c3         1 UW2       0.057600
      6 N3          -3.2870     0.7160    -0.7040 na         1 UW2      -0.011100
      7 C2          -3.3520    -0.6600    -0.5350 ca         1 UW2       0.157500
      8 N1          -4.3620    -1.5410    -0.6680 nb         1 UW2      -0.249000
      9 C1          -4.0700    -2.8210    -0.3340 ca         1 UW2       0.203900
     10 N           -2.8890    -3.2800     0.1450 nb         1 UW2      -0.307000
     11 N2          -2.0280     1.2290    -0.3920 nc         1 UW2      -0.512100
     12 C4          -1.3140     0.1500    -0.0500 cd         1 UW2       0.438500
     13 C3          -2.1190    -1.0500    -0.0980 ca         1 UW2      -0.374900
     14 C           -1.9090    -2.3750     0.2710 ca         1 UW2       0.452900
     15 N5          -0.7640    -2.8340     0.8180 nv         1 UW2      -1.062900
     16 C9           0.1160     0.2420     0.2930 ca         1 UW2      -0.111900
     17 C14          1.0580    -0.6230    -0.2990 ca         1 UW2      -0.075000
     18 C13          2.4290    -0.4940    -0.0070 ca         1 UW2      -0.121000
     19 C15          3.3570    -1.3760    -0.5850 ca         1 UW2      -0.041000
     20 C16          4.7120    -1.2100    -0.2670 ca         1 UW2      -0.169000
     21 C17          5.0910    -0.1750     0.5990 ca         1 UW2       0.603300
     22 O1           6.4200    -0.0390     0.9170 os         1 UW2      -0.433300
     23 C18          6.9370     1.0790     0.2230 cx         1 UW2       0.117300
     24 C20          7.4770     0.8430    -1.1670 cx         1 UW2      -0.135400
     25 C19          8.4260     1.0890    -0.0180 cx         1 UW2      -0.135400
     26 N4           4.2010     0.6710     1.1650 nb         1 UW2      -0.755000
     27 C12          2.8900     0.5220     0.8670 ca         1 UW2       0.320000
     28 C11          1.9460     1.4020     1.4240 ca         1 UW2      -0.100000
     29 C10          0.5760     1.2750     1.1330 ca         1 UW2      -0.066000
     30 H1          -5.5460     0.0100     0.3050 ho         1 UW2       0.466000
     31 H2          -6.0310     3.8420    -0.9960 hc         1 UW2       0.044700
     32 H3          -6.9990     2.4650    -1.5610 hc         1 UW2       0.044700
     33 H4          -7.2860     3.1500     0.0510 hc         1 UW2       0.044700
     34 H5          -4.1520     1.8420     1.6730 hc         1 UW2       0.044700
     35 H6          -4.2370     3.4430     0.9110 hc         1 UW2       0.044700
     36 H7          -5.5870     2.8540     1.9000 hc         1 UW2       0.044700
     37 H8          -4.9080     1.0430    -2.0010 h1         1 UW2       0.075200
     38 H9          -3.9860     2.4840    -1.5760 h1         1 UW2       0.075200
     39 H10         -4.8720    -3.5490    -0.4400 h5         1 UW2       0.047100
     40 H11         -0.1010    -2.1600     1.1870 hn         1 UW2       0.498500
     41 H12         -0.7800    -3.7480     1.2620 hn         1 UW2       0.498500
     42 H13          0.7230    -1.3890    -0.9960 ha         1 UW2       0.123000
     43 H14          3.0390    -2.1700    -1.2590 ha         1 UW2       0.123000
     44 H15          5.4660    -1.8700    -0.6830 ha         1 UW2       0.140000
     45 H16          6.4530     2.0330     0.4440 h1         1 UW2       0.095700
     46 H17          7.4230    -0.1640    -1.5730 hc         1 UW2       0.081200
     47 H18          7.3470     1.6370    -1.8980 hc         1 UW2       0.081200
     48 H19          8.9360     2.0480     0.0240 hc         1 UW2       0.081200
     49 H20          9.0050     0.2460     0.3530 hc         1 UW2       0.081200
     50 H21          2.2820     2.1950     2.0850 ha         1 UW2       0.134000
     51 H22         -0.1310     1.9770     1.5710 ha         1 UW2       0.130000
@<TRIPOS>BOND
     1     1     2 1   
     2     1    30 1   
     3     2     3 1   
     4     2     4 1   
     5     2     5 1   
     6     3    31 1   
     7     3    32 1   
     8     3    33 1   
     9     4    34 1   
    10     4    35 1   
    11     4    36 1   
    12     5     6 1   
    13     5    37 1   
    14     5    38 1   
    15     6     7 1   
    16     6    11 1   
    17     7     8 ar  
    18     7    13 ar  
    19     8     9 ar  
    20     9    10 ar  
    21     9    39 1   
    22    10    14 ar  
    23    11    12 2   
    24    12    13 1   
    25    12    16 1   
    26    13    14 ar  
    27    14    15 1   
    28    15    40 1   
    29    15    41 1   
    30    16    17 ar  
    31    16    29 ar  
    32    17    18 ar  
    33    17    42 1   
    34    18    19 ar  
    35    18    27 ar  
    36    19    20 ar  
    37    19    43 1   
    38    20    21 ar  
    39    20    44 1   
    40    21    22 1   
    41    21    26 ar  
    42    22    23 1   
    43    23    24 1   
    44    23    25 1   
    45    23    45 1   
    46    24    25 1   
    47    24    46 1   
    48    24    47 1   
    49    25    48 1   
    50    25    49 1   
    51    26    27 ar  
    52    27    28 ar  
    53    28    29 ar  
    54    28    50 1   
    55    29    51 1   
@<TRIPOS>SUBSTRUCTURE
     1 UW2         1 TEMP              0 ****  ****    0 ROOT
