@<TRIPOS>MOLECULE
UW3
   57    61     1     0     0
SMALL
No Charge or Current Charge


@<TRIPOS>ATOM
      1 CAM         -7.0810    -0.7110     0.1010 cy         1 UW3      -0.102400
      2 CAN         -8.2080     0.2270     0.6490 cy         1 UW3      -0.087400
      3 CAO         -8.2380     0.8400    -0.7920 cy         1 UW3      -0.102400
      4 CAL         -6.7220     0.4640    -0.8730 cy         1 UW3       0.147300
      5 OAK         -5.8270     1.4560    -0.3500 os         1 UW3      -0.335100
      6 CAC         -4.4820     1.2200    -0.1470 ca         1 UW3       0.163100
      7 CAD         -3.8360     0.0610    -0.6230 ca         1 UW3      -0.199000
      8 CAB         -3.7470     2.1880     0.5530 ca         1 UW3      -0.133000
      9 CAA         -2.3760     2.0030     0.7880 ca         1 UW3      -0.057000
     10 CAF         -1.7370     0.8410     0.3190 ca         1 UW3      -0.124000
     11 CAJ         -0.3660     0.6440     0.5540 ca         1 UW3      -0.021000
     12 CAE         -2.4650    -0.1400    -0.3950 ca         1 UW3       0.311000
     13 NAG         -1.8700    -1.2520    -0.8750 nb         1 UW3      -0.675000
     14 CAH         -0.5500    -1.4360    -0.6430 ca         1 UW3       0.378900
     15 CAI          0.2430    -0.5470     0.1080 ca         1 UW3      -0.205500
     16 CAP          1.6880    -0.7500     0.2610 cc         1 UW3       0.365500
     17 NAT          2.4800     0.3040     0.1800 nd         1 UW3      -0.523800
     18 CAQ          2.4030    -1.9770     0.2820 cc         1 UW3      -0.353600
     19 CAW          1.9130    -3.3480     0.5000 c          1 UW3       0.664700
     20 OAY          2.5730    -4.3520     0.2900 o          1 UW3      -0.658100
     21 NAX          0.6870    -3.4840     1.0350 nt         1 UW3      -0.595000
     22 CAR          3.7100    -1.6550     0.1500 cd         1 UW3       0.304000
     23 NAV          4.8140    -2.4630     0.1400 nv         1 UW3      -1.061000
     24 NAS          3.7500    -0.2520     0.1180 na         1 UW3       0.088800
     25 CAU          4.9750     0.5880     0.0220 c6         1 UW3       0.109300
     26 CAZ          5.0790     1.5820     1.2140 c6         1 UW3      -0.087400
     27 CBA          6.3570     2.4510     1.1080 c6         1 UW3      -0.073900
     28 CBB          6.4130     3.2010    -0.2460 c6         1 UW3      -0.078400
     29 CBC          6.3050     2.2180    -1.4380 c6         1 UW3      -0.073900
     30 CBD          5.0280     1.3470    -1.3330 c6         1 UW3      -0.087400
     31 H1          -6.3050    -0.9970     0.8190 hc         1 UW3       0.062450
     32 H2          -7.4450    -1.6150    -0.4000 hc         1 UW3       0.062450
     33 H3          -9.1280    -0.2680     0.9800 hc         1 UW3       0.054700
     34 H4          -7.8830     0.9210     1.4340 hc         1 UW3       0.054700
     35 H5          -8.8750     0.3010    -1.5030 hc         1 UW3       0.062450
     36 H6          -8.4700     1.9090    -0.8550 hc         1 UW3       0.062450
     37 H7          -6.3960     0.1540    -1.8720 h1         1 UW3       0.064700
     38 H8          -4.3810    -0.6960    -1.1760 ha         1 UW3       0.138000
     39 H9          -4.2440     3.0840     0.9160 ha         1 UW3       0.130000
     40 H10         -1.8150     2.7590     1.3340 ha         1 UW3       0.119000
     41 H11          0.2110     1.3940     1.0930 ha         1 UW3       0.128000
     42 H12         -0.1140    -2.3170    -1.1120 h4         1 UW3       0.030100
     43 H13          0.1590    -2.6700     1.3070 hn         1 UW3       0.313500
     44 H14          0.3410    -4.4110     1.2300 hn         1 UW3       0.313500
     45 H15          4.6540    -3.4690     0.0730 hn         1 UW3       0.480000
     46 H16          5.7060    -2.1170    -0.2040 hn         1 UW3       0.480000
     47 H17          5.8520    -0.0710     0.0690 h1         1 UW3       0.051700
     48 H18          4.1960     2.2350     1.2400 hc         1 UW3       0.059450
     49 H19          5.0850     1.0270     2.1620 hc         1 UW3       0.059450
     50 H20          6.3870     3.1730     1.9360 hc         1 UW3       0.042200
     51 H21          7.2480     1.8160     1.2170 hc         1 UW3       0.042200
     52 H22          5.5960     3.9350    -0.2960 hc         1 UW3       0.044200
     53 H23          7.3490     3.7720    -0.3170 hc         1 UW3       0.044200
     54 H24          6.2970     2.7780    -2.3840 hc         1 UW3       0.042200
     55 H25          7.1930     1.5720    -1.4670 hc         1 UW3       0.042200
     56 H26          5.0000     0.6290    -2.1640 hc         1 UW3       0.059450
     57 H27          4.1400     1.9850    -1.4420 hc         1 UW3       0.059450
@<TRIPOS>BOND
     1     1     2 1   
     2     1     4 1   
     3     1    31 1   
     4     1    32 1   
     5     2     3 1   
     6     2    33 1   
     7     2    34 1   
     8     3     4 1   
     9     3    35 1   
    10     3    36 1   
    11     4     5 1   
    12     4    37 1   
    13     5     6 1   
    14     6     7 ar  
    15     6     8 ar  
    16     7    12 ar  
    17     7    38 1   
    18     8     9 ar  
    19     8    39 1   
    20     9    10 ar  
    21     9    40 1   
    22    10    11 ar  
    23    10    12 ar  
    24    11    15 ar  
    25    11    41 1   
    26    12    13 ar  
    27    13    14 ar  
    28    14    15 ar  
    29    14    42 1   
    30    15    16 1   
    31    16    17 2   
    32    16    18 1   
    33    17    24 1   
    34    18    19 1   
    35    18    22 2   
    36    19    20 2   
    37    19    21 1   
    38    21    43 1   
    39    21    44 1   
    40    22    23 1   
    41    22    24 1   
    42    23    45 1   
    43    23    46 1   
    44    24    25 1   
    45    25    26 1   
    46    25    30 1   
    47    25    47 1   
    48    26    27 1   
    49    26    48 1   
    50    26    49 1   
    51    27    28 1   
    52    27    50 1   
    53    27    51 1   
    54    28    29 1   
    55    28    52 1   
    56    28    53 1   
    57    29    30 1   
    58    29    54 1   
    59    29    55 1   
    60    30    56 1   
    61    30    57 1   
@<TRIPOS>SUBSTRUCTURE
     1 UW3         1 TEMP              0 ****  ****    0 ROOT
