@<TRIPOS>MOLECULE
UW3
   57    61     1     0     0
SMALL
abcg2


@<TRIPOS>ATOM
      1 CAM         -6.9440    -0.6820    -0.1370 cy         1 UW3      -0.102400
      2 CAN         -8.2470    -0.0170     0.3500 cy         1 UW3      -0.087400
      3 CAO         -8.0220     1.0930    -0.6960 cy         1 UW3      -0.102400
      4 CAL         -6.5640     0.6400    -0.8330 cy         1 UW3       0.147300
      5 OAK         -5.7460     1.4760    -0.0280 os         1 UW3      -0.335100
      6 CAC         -4.4440     1.1800     0.0900 ca         1 UW3       0.163100
      7 CAD         -3.8130     0.1320    -0.5380 ca         1 UW3      -0.199000
      8 CAB         -3.7060     2.0560     0.9300 ca         1 UW3      -0.133000
      9 CAA         -2.3710     1.8680     1.1230 ca         1 UW3      -0.057000
     10 CAF         -1.6930     0.7990     0.4890 ca         1 UW3      -0.124000
     11 CAJ         -0.3190     0.5560     0.6550 ca         1 UW3      -0.021000
     12 CAE         -2.4290    -0.0730    -0.3490 ca         1 UW3       0.311000
     13 NAG         -1.8380    -1.1100    -0.9890 nb         1 UW3      -0.675000
     14 CAH         -0.5600    -1.3060    -0.8130 ca         1 UW3       0.378900
     15 CAI          0.2670    -0.5070     0.0130 ca         1 UW3      -0.205500
     16 CAP          1.7080    -0.7670     0.1170 cc         1 UW3       0.365500
     17 NAT          2.5480     0.2200    -0.0800 nd         1 UW3      -0.523800
     18 CAQ          2.3950    -1.9840     0.3720 cc         1 UW3      -0.353600
     19 CAW          1.9360    -3.3280     0.7150 c          1 UW3       0.664700
     20 OAY          2.6900    -4.2990     0.6320 o          1 UW3      -0.658100
     21 NAX          0.6630    -3.4590     1.1330 nt         1 UW3      -0.595000
     22 CAR          3.7460    -1.6280     0.2950 cd         1 UW3       0.304000
     23 NAV          4.8530    -2.3860     0.5180 nv         1 UW3      -1.061000
     24 NAS          3.7810    -0.3100     0.0420 na         1 UW3       0.088800
     25 CAU          4.9380     0.5640    -0.0660 c6         1 UW3       0.109300
     26 CAZ          4.9250     1.6110     1.0460 c6         1 UW3      -0.087400
     27 CBA          6.1400     2.5270     0.9400 c6         1 UW3      -0.073900
     28 CBB          6.2250     3.1790    -0.4360 c6         1 UW3      -0.078400
     29 CBC          6.2340     2.1280    -1.5400 c6         1 UW3      -0.073900
     30 CBD          5.0220     1.2060    -1.4480 c6         1 UW3      -0.087400
     31 H1          -6.2560    -1.0700     0.6150 hc         1 UW3       0.062450
     32 H2          -7.1280    -1.4670    -0.8710 hc         1 UW3       0.062450
     33 H3          -9.1630    -0.6000     0.2670 hc         1 UW3       0.054700
     34 H4          -8.1650     0.3540     1.3720 hc         1 UW3       0.054700
     35 H5          -8.5720     0.9030    -1.6180 hc         1 UW3       0.062450
     36 H6          -8.1880     2.1280    -0.3990 hc         1 UW3       0.062450
     37 H7          -6.1510     0.5790    -1.8450 h1         1 UW3       0.064700
     38 H8          -4.3390    -0.5600    -1.1830 ha         1 UW3       0.138000
     39 H9          -4.2230     2.8760     1.4130 ha         1 UW3       0.130000
     40 H10         -1.8150     2.5410     1.7640 ha         1 UW3       0.119000
     41 H11          0.2680     1.2050     1.2940 ha         1 UW3       0.128000
     42 H12         -0.1200    -2.1370    -1.3550 h4         1 UW3       0.030100
     43 H13          0.1010    -2.6660     1.3900 hn         1 UW3       0.313500
     44 H14          0.3340    -4.3630     1.4290 hn         1 UW3       0.313500
     45 H15          4.6660    -3.3760     0.4710 hn         1 UW3       0.480000
     46 H16          5.6950    -2.1270     0.0290 hn         1 UW3       0.480000
     47 H17          5.8210    -0.0650     0.0720 h1         1 UW3       0.051700
     48 H18          4.0100     2.2040     0.9670 hc         1 UW3       0.059450
     49 H19          4.9030     1.1130     2.0180 hc         1 UW3       0.059450
     50 H20          6.0910     3.2880     1.7220 hc         1 UW3       0.042200
     51 H21          7.0530     1.9500     1.1260 hc         1 UW3       0.042200
     52 H22          5.3670     3.8460    -0.5740 hc         1 UW3       0.044200
     53 H23          7.1190     3.8040    -0.5020 hc         1 UW3       0.044200
     54 H24          6.2560     2.6060    -2.5220 hc         1 UW3       0.042200
     55 H25          7.1510     1.5330    -1.4660 hc         1 UW3       0.042200
     56 H26          5.0760     0.4270    -2.2120 hc         1 UW3       0.059450
     57 H27          4.1070     1.7760    -1.6330 hc         1 UW3       0.059450
@<TRIPOS>BOND
     1     1     2 1   
     2     1     4 1   
     3     1    31 1   
     4     1    32 1   
     5     2     3 1   
     6     2    33 1   
     7     2    34 1   
     8     3     4 1   
     9     3    35 1   
    10     3    36 1   
    11     4     5 1   
    12     4    37 1   
    13     5     6 1   
    14     6     7 ar  
    15     6     8 ar  
    16     7    12 ar  
    17     7    38 1   
    18     8     9 ar  
    19     8    39 1   
    20     9    10 ar  
    21     9    40 1   
    22    10    11 ar  
    23    10    12 ar  
    24    11    15 ar  
    25    11    41 1   
    26    12    13 ar  
    27    13    14 ar  
    28    14    15 ar  
    29    14    42 1   
    30    15    16 1   
    31    16    17 2   
    32    16    18 1   
    33    17    24 1   
    34    18    19 1   
    35    18    22 2   
    36    19    20 2   
    37    19    21 1   
    38    21    43 1   
    39    21    44 1   
    40    22    23 1   
    41    22    24 1   
    42    23    45 1   
    43    23    46 1   
    44    24    25 1   
    45    25    26 1   
    46    25    30 1   
    47    25    47 1   
    48    26    27 1   
    49    26    48 1   
    50    26    49 1   
    51    27    28 1   
    52    27    50 1   
    53    27    51 1   
    54    28    29 1   
    55    28    52 1   
    56    28    53 1   
    57    29    30 1   
    58    29    54 1   
    59    29    55 1   
    60    30    56 1   
    61    30    57 1   
@<TRIPOS>SUBSTRUCTURE
     1 UW3         1 TEMP              0 ****  ****    0 ROOT
