@<TRIPOS>MOLECULE
UW4
   53    56     1     0     0
SMALL
No Charge or Current Charge


@<TRIPOS>ATOM
      1 O1          -1.4340    -3.1780    -0.7100 o          1 UW4      -0.590100
      2 C19         -2.5120    -2.8100    -0.2810 c          1 UW4       0.642700
      3 N3          -3.4360    -3.7360     0.0330 nt         1 UW4      -0.609000
      4 C18         -2.9080    -1.4050    -0.0820 cc         1 UW4      -0.342600
      5 C20         -4.1780    -0.9260    -0.0020 cd         1 UW4       0.265000
      6 N4          -5.3780    -1.5860    -0.1190 nv         1 UW4      -1.063000
      7 N           -4.0570     0.4800     0.0790 na         1 UW4       0.096800
      8 C1          -5.1500     1.5140     0.1830 c3         1 UW4       0.121000
      9 C3          -6.0410     1.2410     1.4270 c3         1 UW4      -0.099767
     10 C2          -4.5690     2.9530     0.3460 c3         1 UW4      -0.099767
     11 C           -6.0190     1.5130    -1.1050 c3         1 UW4      -0.099767
     12 C4          -2.0550    -0.2750    -0.0500 cc         1 UW4       0.384500
     13 N1          -2.7200     0.8630     0.0360 nd         1 UW4      -0.527800
     14 C5          -0.5830    -0.2400     0.0840 ca         1 UW4      -0.126500
     15 C10          0.1310    -1.2380     0.7820 ca         1 UW4      -0.053000
     16 C9           1.5240    -1.1450     0.9520 ca         1 UW4      -0.106000
     17 C8           2.2440    -0.0450     0.4620 ca         1 UW4       0.322000
     18 N2           3.5830     0.0140     0.6410 nb         1 UW4      -0.766000
     19 C11          4.2540     1.0890     0.1720 ca         1 UW4       0.602300
     20 C16          3.6130     2.1510    -0.4800 ca         1 UW4      -0.177000
     21 C17          2.2250     2.1070    -0.6700 ca         1 UW4      -0.036000
     22 C7           1.5280     0.9850    -0.1910 ca         1 UW4      -0.122000
     23 C6           0.1330     0.8950    -0.3600 ca         1 UW4      -0.047000
     24 O            5.6160     1.1760     0.3440 os         1 UW4      -0.459300
     25 C12          6.3980     0.0530     0.7810 cy         1 UW4       0.164300
     26 C15          6.6670    -1.0500    -0.3000 cy         1 UW4      -0.098900
     27 C14          7.8940    -0.1800    -0.7340 cy         1 UW4      -0.092400
     28 C13          7.9460     0.2850     0.7610 cy         1 UW4      -0.098900
     29 H1          -3.2160    -4.7140    -0.0720 hn         1 UW4       0.301500
     30 H2          -4.3020    -3.4360     0.4560 hn         1 UW4       0.301500
     31 H3          -5.4090    -2.4220    -0.6990 hn         1 UW4       0.463000
     32 H4          -6.2350    -1.0380    -0.1240 hn         1 UW4       0.463000
     33 H5          -5.4320     1.2090     2.3380 hc         1 UW4       0.049478
     34 H6          -6.7920     2.0320     1.5510 hc         1 UW4       0.049478
     35 H7          -6.5810     0.2920     1.3490 hc         1 UW4       0.049478
     36 H8          -3.9540     3.2330    -0.5180 hc         1 UW4       0.049478
     37 H9          -5.3720     3.6950     0.4330 hc         1 UW4       0.049478
     38 H10         -3.9490     3.0290     1.2470 hc         1 UW4       0.049478
     39 H11         -6.5480     0.5650    -1.2440 hc         1 UW4       0.049478
     40 H12         -6.7760     2.3060    -1.0660 hc         1 UW4       0.049478
     41 H13         -5.3970     1.6850    -1.9910 hc         1 UW4       0.049478
     42 H14         -0.3870    -2.0760     1.2390 ha         1 UW4       0.117000
     43 H15          2.0500    -1.9310     1.4860 ha         1 UW4       0.129000
     44 H16          4.1950     2.9960    -0.8330 ha         1 UW4       0.135000
     45 H17          1.7090     2.9200    -1.1750 ha         1 UW4       0.119000
     46 H18         -0.3930     1.7040    -0.8620 ha         1 UW4       0.121000
     47 H19          6.0180    -0.3230     1.7380 h1         1 UW4       0.074700
     48 H20          6.9290    -2.0310     0.1150 hc         1 UW4       0.061200
     49 H21          5.8850    -1.1880    -1.0530 hc         1 UW4       0.061200
     50 H22          8.7690    -0.7310    -1.0960 hc         1 UW4       0.051700
     51 H23          7.6590     0.6150    -1.4520 hc         1 UW4       0.051700
     52 H24          8.2780     1.3130     0.9340 hc         1 UW4       0.061200
     53 H25          8.5090    -0.3810     1.4250 hc         1 UW4       0.061200
@<TRIPOS>BOND
     1     1     2 2   
     2     2     3 1   
     3     2     4 1   
     4     3    29 1   
     5     3    30 1   
     6     4     5 2   
     7     4    12 1   
     8     5     6 1   
     9     5     7 1   
    10     6    31 1   
    11     6    32 1   
    12     7     8 1   
    13     7    13 1   
    14     8     9 1   
    15     8    10 1   
    16     8    11 1   
    17     9    33 1   
    18     9    34 1   
    19     9    35 1   
    20    10    36 1   
    21    10    37 1   
    22    10    38 1   
    23    11    39 1   
    24    11    40 1   
    25    11    41 1   
    26    12    13 2   
    27    12    14 1   
    28    14    15 ar  
    29    14    23 ar  
    30    15    16 ar  
    31    15    42 1   
    32    16    17 ar  
    33    16    43 1   
    34    17    18 ar  
    35    17    22 ar  
    36    18    19 ar  
    37    19    20 ar  
    38    19    24 1   
    39    20    21 ar  
    40    20    44 1   
    41    21    22 ar  
    42    21    45 1   
    43    22    23 ar  
    44    23    46 1   
    45    24    25 1   
    46    25    26 1   
    47    25    28 1   
    48    25    47 1   
    49    26    27 1   
    50    26    48 1   
    51    26    49 1   
    52    27    28 1   
    53    27    50 1   
    54    27    51 1   
    55    28    52 1   
    56    28    53 1   
@<TRIPOS>SUBSTRUCTURE
     1 UW4         1 TEMP              0 ****  ****    0 ROOT
