@<TRIPOS>MOLECULE
UW4
   53    56     1     0     0
SMALL
bcc


@<TRIPOS>ATOM
      1 O1          -1.3960    -2.9480    -1.0460 o          1 UW4      -0.590100
      2 C19         -2.4280    -2.7230    -0.4300 c          1 UW4       0.709700
      3 N3          -3.2840    -3.7130    -0.0660 nt         1 UW4      -0.676000
      4 C18         -2.8500    -1.3640    -0.0800 cc         1 UW4      -0.407900
      5 C20         -4.1510    -0.8580    -0.0480 cd         1 UW4       0.177300
      6 N4          -5.3320    -1.5300    -0.2020 nv         1 UW4      -0.814200
      7 N           -4.0460     0.4660     0.1930 na         1 UW4       0.075400
      8 C1          -5.1220     1.4800     0.2810 c3         1 UW4       0.091700
      9 C3          -6.1520     1.0580     1.3310 c3         1 UW4      -0.099767
     10 C2          -4.5190     2.8120     0.7200 c3         1 UW4      -0.099767
     11 C           -5.7540     1.6630    -1.1010 c3         1 UW4      -0.099767
     12 C4          -2.0320    -0.2290     0.1340 cc         1 UW4       0.449800
     13 N1          -2.7590     0.8480     0.3020 nd         1 UW4      -0.527800
     14 C5          -0.5690    -0.1390     0.2090 ca         1 UW4      -0.126500
     15 C10          0.1850    -1.1180     0.8950 ca         1 UW4      -0.071000
     16 C9           1.5480    -1.0260     0.9950 ca         1 UW4      -0.189300
     17 C8           2.2380     0.0530     0.4050 ca         1 UW4       0.452600
     18 N2           3.5900     0.1090     0.5110 nb         1 UW4      -0.766000
     19 C11          4.2130     1.1060    -0.0390 ca         1 UW4       0.667600
     20 C16          3.5660     2.1560    -0.7510 ca         1 UW4      -0.260300
     21 C17          2.2130     2.1120    -0.8600 ca         1 UW4      -0.054000
     22 C7           1.4900     1.0400    -0.2760 ca         1 UW4      -0.187300
     23 C6           0.0900     0.9270    -0.3580 ca         1 UW4      -0.065000
     24 O            5.5390     1.2030     0.0490 os         1 UW4      -0.436100
     25 C12          6.2440     0.1670     0.7280 cy         1 UW4       0.141100
     26 C15          6.4160    -1.1040    -0.1210 cy         1 UW4      -0.098900
     27 C14          7.7990    -0.5890    -0.5690 cy         1 UW4      -0.092400
     28 C13          7.7500     0.4260     0.5910 cy         1 UW4      -0.098900
     29 H1          -2.9950    -4.6660    -0.2270 hn         1 UW4       0.301500
     30 H2          -3.9030    -3.5820     0.7170 hn         1 UW4       0.301500
     31 H3          -5.2300    -2.4260    -0.6560 hn         1 UW4       0.407800
     32 H4          -6.0970    -1.0150    -0.6060 hn         1 UW4       0.407800
     33 H5          -5.6790     0.9550     2.3080 hc         1 UW4       0.049478
     34 H6          -6.9210     1.8260     1.4090 hc         1 UW4       0.049478
     35 H7          -6.6530     0.1200     1.1010 hc         1 UW4       0.049478
     36 H8          -3.7840     3.1890     0.0110 hc         1 UW4       0.049478
     37 H9          -5.3260     3.5410     0.7900 hc         1 UW4       0.049478
     38 H10         -4.0460     2.7390     1.6990 hc         1 UW4       0.049478
     39 H11         -6.2160     0.7570    -1.4940 hc         1 UW4       0.049478
     40 H12         -6.5350     2.4220    -1.0520 hc         1 UW4       0.049478
     41 H13         -5.0050     1.9930    -1.8210 hc         1 UW4       0.049478
     42 H14         -0.3230    -1.9440     1.3730 ha         1 UW4       0.135000
     43 H15          2.1140    -1.7770     1.5290 ha         1 UW4       0.147000
     44 H16          4.1480     2.9570    -1.1850 ha         1 UW4       0.153000
     45 H17          1.6800     2.8910    -1.3910 ha         1 UW4       0.137000
     46 H18         -0.4670     1.6890    -0.8890 ha         1 UW4       0.139000
     47 H19          5.8410     0.0440     1.7350 h1         1 UW4       0.074700
     48 H20          6.4890    -1.9860     0.5170 hc         1 UW4       0.061200
     49 H21          5.6680    -1.2970    -0.8900 hc         1 UW4       0.061200
     50 H22          8.6210    -1.3040    -0.5660 hc         1 UW4       0.051700
     51 H23          7.7660    -0.1060    -1.5460 hc         1 UW4       0.051700
     52 H24          8.0580     1.4530     0.3910 hc         1 UW4       0.061200
     53 H25          8.2830     0.0690     1.4720 hc         1 UW4       0.061200
@<TRIPOS>BOND
     1     1     2 2   
     2     2     3 1   
     3     2     4 1   
     4     3    29 1   
     5     3    30 1   
     6     4     5 2   
     7     4    12 1   
     8     5     6 1   
     9     5     7 1   
    10     6    31 1   
    11     6    32 1   
    12     7     8 1   
    13     7    13 1   
    14     8     9 1   
    15     8    10 1   
    16     8    11 1   
    17     9    33 1   
    18     9    34 1   
    19     9    35 1   
    20    10    36 1   
    21    10    37 1   
    22    10    38 1   
    23    11    39 1   
    24    11    40 1   
    25    11    41 1   
    26    12    13 2   
    27    12    14 1   
    28    14    15 ar  
    29    14    23 ar  
    30    15    16 ar  
    31    15    42 1   
    32    16    17 ar  
    33    16    43 1   
    34    17    18 ar  
    35    17    22 ar  
    36    18    19 ar  
    37    19    20 ar  
    38    19    24 1   
    39    20    21 ar  
    40    20    44 1   
    41    21    22 ar  
    42    21    45 1   
    43    22    23 ar  
    44    23    46 1   
    45    24    25 1   
    46    25    26 1   
    47    25    28 1   
    48    25    47 1   
    49    26    27 1   
    50    26    48 1   
    51    26    49 1   
    52    27    28 1   
    53    27    50 1   
    54    27    51 1   
    55    28    52 1   
    56    28    53 1   
@<TRIPOS>SUBSTRUCTURE
     1 UW4         1 TEMP              0 ****  ****    0 ROOT
