@<TRIPOS>MOLECULE
UW6
   14    14     1     0     0
SMALL
No Charge or Current Charge


@<TRIPOS>ATOM
      1 N1          -1.6930    11.7540   -34.6180 nc         1 UW6      -0.405300
      2 C1           0.0080    13.3280   -35.3830 cd         1 UW6      -0.122800
      3 C4          -0.4600    11.9860   -35.0750 cd         1 UW6       0.337500
      4 C3          -2.2600    14.1600   -34.6760 c          1 UW6       0.534200
      5 C2          -0.8930    14.3690   -35.1780 cc         1 UW6      -0.274200
      6 O           -3.0740    15.0500   -34.4850 o          1 UW6      -0.548000
      7 N           -2.5290    12.8290   -34.4400 ns         1 UW6      -0.235900
      8 C            1.4040    13.5730   -35.8980 c3         1 UW6      -0.057900
      9 H1           0.1550    11.1030   -35.1960 h4         1 UW6       0.044800
     10 H2          -0.6320    15.4020   -35.3790 ha         1 UW6       0.212000
     11 H3          -3.4640    12.6360   -34.0910 hn         1 UW6       0.353500
     12 H4           1.9240    12.6320   -36.1170 hc         1 UW6       0.054367
     13 H5           1.3860    14.1640   -36.8210 hc         1 UW6       0.054367
     14 H6           2.0040    14.1200   -35.1610 hc         1 UW6       0.054367
@<TRIPOS>BOND
     1     1     3 2   
     2     1     7 1   
     3     2     3 1   
     4     2     5 2   
     5     2     8 1   
     6     3     9 1   
     7     4     5 1   
     8     4     6 2   
     9     4     7 1   
    10     5    10 1   
    11     7    11 1   
    12     8    12 1   
    13     8    13 1   
    14     8    14 1   
@<TRIPOS>SUBSTRUCTURE
     1 UW6         1 TEMP              0 ****  ****    0 ROOT
