@<TRIPOS>MOLECULE
UW6
   14    14     1     0     0
SMALL
abcg2


@<TRIPOS>ATOM
      1 N1          -1.6450    11.7900   -34.5450 nc         1 UW6      -0.405300
      2 C1          -0.0220    13.3540   -35.3860 cd         1 UW6      -0.122800
      3 C4          -0.4570    12.0470   -34.9970 cd         1 UW6       0.337500
      4 C3          -2.2320    14.1510   -34.7370 c          1 UW6       0.534200
      5 C2          -0.9060    14.3760   -35.2530 cc         1 UW6      -0.274200
      6 O           -3.0950    15.0120   -34.5410 o          1 UW6      -0.548000
      7 N           -2.4940    12.8210   -34.4500 ns         1 UW6      -0.235900
      8 C            1.3750    13.5490   -35.8960 c3         1 UW6      -0.057900
      9 H1           0.2120    11.1980   -35.0630 h4         1 UW6       0.044800
     10 H2          -0.6540    15.3900   -35.5330 ha         1 UW6       0.212000
     11 H3          -3.4070    12.5900   -34.0750 hn         1 UW6       0.353500
     12 H4           1.7270    12.6750   -36.4300 hc         1 UW6       0.054367
     13 H5           1.4210    14.4180   -36.5530 hc         1 UW6       0.054367
     14 H6           2.0530    13.7360   -35.0580 hc         1 UW6       0.054367
@<TRIPOS>BOND
     1     1     3 2   
     2     1     7 1   
     3     2     3 1   
     4     2     5 2   
     5     2     8 1   
     6     3     9 1   
     7     4     5 1   
     8     4     6 2   
     9     4     7 1   
    10     5    10 1   
    11     7    11 1   
    12     8    12 1   
    13     8    13 1   
    14     8    14 1   
@<TRIPOS>SUBSTRUCTURE
     1 UW6         1 TEMP              0 ****  ****    0 ROOT
