@<TRIPOS>MOLECULE
UW7
   23    24     1     0     0
SMALL
No Charge or Current Charge


@<TRIPOS>ATOM
      1 N1         -19.7110    12.8290    24.9160 nc         1 UW7      -0.255800
      2 C4         -23.2070    12.3900    28.0070 c6         1 UW7      -0.190700
      3 C5         -21.9250    13.2690    27.8920 c6         1 UW7       0.001900
      4 C6         -21.2160    12.9680    26.5940 cc         1 UW7      -0.151300
      5 C7         -24.0880    12.8110    29.2070 c          1 UW7       0.720000
      6 N          -19.9460    13.2830    26.1850 na         1 UW7       0.117800
      7 C          -18.9120    14.0040    26.9410 c3         1 UW7       0.069900
      8 O          -24.2540    12.0020    30.1080 o          1 UW7      -0.730000
      9 C1         -21.7490    12.3140    25.5240 cd         1 UW7       0.191300
     10 C2         -23.1550    11.7610    25.5060 c6         1 UW7      -0.094700
     11 C3         -24.0010    12.3640    26.6630 c6         1 UW7      -0.062400
     12 N2         -20.8100    12.2390    24.5170 nd         1 UW7      -0.372000
     13 O1         -24.5830    13.9290    29.2010 o          1 UW7      -0.730000
     14 H1         -22.8780    11.3610    28.2080 hc         1 UW7       0.038700
     15 H2         -21.2690    13.0880    28.7550 hc         1 UW7       0.060700
     16 H3         -22.1950    14.3340    27.9250 hc         1 UW7       0.060700
     17 H4         -18.0860    14.2850    26.2760 h1         1 UW7       0.052367
     18 H5         -19.3460    14.9100    27.3800 h1         1 UW7       0.052367
     19 H6         -18.5310    13.3590    27.7410 h1         1 UW7       0.052367
     20 H8         -23.6420    11.9640    24.5430 hc         1 UW7       0.039200
     21 H9         -23.1190    10.6680    25.6120 hc         1 UW7       0.039200
     22 H10        -24.3060    13.3860    26.3970 hc         1 UW7       0.045200
     23 H11        -24.9270    11.7850    26.7810 hc         1 UW7       0.045200
@<TRIPOS>BOND
     1     1     6 1   
     2     1    12 2   
     3     2     3 1   
     4     2     5 1   
     5     2    11 1   
     6     2    14 1   
     7     3     4 1   
     8     3    15 1   
     9     3    16 1   
    10     4     6 1   
    11     4     9 2   
    12     5     8 1   
    13     5    13 1   
    14     6     7 1   
    15     7    17 1   
    16     7    18 1   
    17     7    19 1   
    18     9    10 1   
    19     9    12 1   
    20    10    11 1   
    21    10    20 1   
    22    10    21 1   
    23    11    22 1   
    24    11    23 1   
@<TRIPOS>SUBSTRUCTURE
     1 UW7         1 TEMP              0 ****  ****    0 ROOT
