@<TRIPOS>MOLECULE
UW7
   23    24     1     0     0
SMALL
abcg2


@<TRIPOS>ATOM
      1 N1         -19.7760    12.8650    24.9590 nc         1 UW7      -0.255800
      2 C4         -23.1400    12.3700    28.0140 c6         1 UW7      -0.190700
      3 C5         -21.9020    13.2640    27.8940 c6         1 UW7       0.001900
      4 C6         -21.2330    12.9760    26.6030 cc         1 UW7      -0.151300
      5 C7         -24.0760    12.7930    29.1680 c          1 UW7       0.720000
      6 N          -19.9970    13.3060    26.1910 na         1 UW7       0.117800
      7 C          -18.9830    14.0330    26.9150 c3         1 UW7       0.069900
      8 O          -24.7010    11.8730    29.7330 o          1 UW7      -0.730000
      9 C1         -21.7660    12.2990    25.5370 cd         1 UW7       0.191300
     10 C2         -23.1430    11.7340    25.5360 c6         1 UW7      -0.094700
     11 C3         -23.9310    12.3570    26.6940 c6         1 UW7      -0.062400
     12 N2         -20.8410    12.2550    24.5570 nd         1 UW7      -0.372000
     13 O1         -24.1610    14.0140    29.4120 o          1 UW7      -0.730000
     14 H1         -22.8040    11.3440    28.2050 hc         1 UW7       0.038700
     15 H2         -21.2240    13.0940    28.7360 hc         1 UW7       0.060700
     16 H3         -22.1990    14.3150    27.9430 hc         1 UW7       0.060700
     17 H4         -18.0960    14.0990    26.2910 h1         1 UW7       0.052367
     18 H5         -19.3300    15.0370    27.1520 h1         1 UW7       0.052367
     19 H6         -18.7320    13.5160    27.8390 h1         1 UW7       0.052367
     20 H8         -23.6450    11.9270    24.5850 hc         1 UW7       0.039200
     21 H9         -23.1080    10.6460    25.6520 hc         1 UW7       0.039200
     22 H10        -24.2060    13.3840    26.4340 hc         1 UW7       0.045200
     23 H11        -24.8630    11.8050    26.8310 hc         1 UW7       0.045200
@<TRIPOS>BOND
     1     1     6 1   
     2     1    12 2   
     3     2     3 1   
     4     2     5 1   
     5     2    11 1   
     6     2    14 1   
     7     3     4 1   
     8     3    15 1   
     9     3    16 1   
    10     4     6 1   
    11     4     9 2   
    12     5     8 1   
    13     5    13 1   
    14     6     7 1   
    15     7    17 1   
    16     7    18 1   
    17     7    19 1   
    18     9    10 1   
    19     9    12 1   
    20    10    11 1   
    21    10    20 1   
    22    10    21 1   
    23    11    22 1   
    24    11    23 1   
@<TRIPOS>SUBSTRUCTURE
     1 UW7         1 TEMP              0 ****  ****    0 ROOT
