@<TRIPOS>MOLECULE
UW9
   61    64     1     0     0
SMALL
No Charge or Current Charge


@<TRIPOS>ATOM
      1 CAB         -5.2070     3.5680     0.5300 c3         1 UW9      -0.088600
      2 CBB         -5.7720     2.2760    -0.1270 c3         1 UW9      -0.085700
      3 CAC         -6.5910     2.6870    -1.3790 c3         1 UW9      -0.088600
      4 CBC         -4.6530     1.1890    -0.4000 c3         1 UW9       0.199500
      5 NBD         -5.1010    -0.0170    -1.1930 n3         1 UW9      -0.783600
      6 CAD         -6.2600    -0.7680    -0.6520 c3         1 UW9       0.188600
      7 CAE         -5.1010     0.1240    -2.6690 c3         1 UW9       0.188600
      8 CAO         -3.9180     0.7680     0.9220 c3         1 UW9       0.094600
      9 NBE         -2.6070     0.1090     0.7210 na         1 UW9       0.003900
     10 NAR         -1.3780     0.7480     0.9590 nc         1 UW9      -0.525100
     11 C4          -2.4500    -1.2370     0.4140 ca         1 UW9       0.173500
     12 N3          -3.3320    -2.2430     0.2460 nb         1 UW9      -0.229000
     13 C2          -2.7950    -3.4700     0.0520 ca         1 UW9       0.191900
     14 N1          -1.4770    -3.7840     0.0540 nb         1 UW9      -0.315000
     15 C6          -0.6280    -2.7650     0.2460 ca         1 UW9       0.452900
     16 NAF          0.6730    -3.1090     0.3310 nv         1 UW9      -1.068900
     17 C5          -1.1020    -1.4660     0.4010 ca         1 UW9      -0.381900
     18 CAW         -0.4710    -0.2020     0.7030 cd         1 UW9       0.435500
     19 CAU          0.9780     0.0690     0.7560 ca         1 UW9      -0.105900
     20 CAM          1.8230    -0.3350    -0.2980 ca         1 UW9      -0.086000
     21 CAH          1.5170     0.8360     1.8100 ca         1 UW9      -0.073000
     22 CAJ          2.8880     1.1410     1.8420 ca         1 UW9      -0.112000
     23 CAX          3.7340     0.7040     0.8070 ca         1 UW9       0.007000
     24 CAL          5.1070     1.0070     0.8340 ca         1 UW9      -0.155000
     25 CAY          3.1980    -0.0320    -0.2700 ca         1 UW9      -0.077000
     26 CAI          4.0390    -0.4560    -1.3150 ca         1 UW9      -0.061000
     27 CAG          5.4120    -0.1520    -1.2840 ca         1 UW9      -0.182000
     28 CAT          5.9500     0.5820    -0.2050 ca         1 UW9       0.152100
     29 OAS          7.2880     0.9100    -0.1220 os         1 UW9      -0.351100
     30 CAN          8.2350     0.5240    -1.1330 c3         1 UW9       0.167600
     31 CAA          9.6120     1.0570    -0.7080 c3         1 UW9      -0.095100
     32 H1          -5.9760     4.3480     0.5870 hc         1 UW9       0.034700
     33 H2          -4.8720     3.3930     1.5580 hc         1 UW9       0.034700
     34 H3          -4.3660     3.9670    -0.0500 hc         1 UW9       0.034700
     35 H4          -6.4870     1.8520     0.5910 hc         1 UW9       0.050700
     36 H5          -5.9290     3.0010    -2.1960 hc         1 UW9       0.034700
     37 H6          -7.2260     1.8670    -1.7290 hc         1 UW9       0.034700
     38 H7          -7.2650     3.5220    -1.1510 hc         1 UW9       0.034700
     39 H8          -3.8850     1.7060    -0.9920 h1         1 UW9       0.065700
     40 H10         -7.1920    -0.2020    -0.7710 h1         1 UW9       0.027367
     41 H11         -6.3750    -1.7250    -1.1770 h1         1 UW9       0.027367
     42 H12         -6.1280    -0.9890     0.4150 h1         1 UW9       0.027367
     43 H13         -4.1960     0.6430    -3.0120 h1         1 UW9       0.027367
     44 H14         -5.1150    -0.8660    -3.1430 h1         1 UW9       0.027367
     45 H15         -5.9750     0.6750    -3.0340 h1         1 UW9       0.027367
     46 H16         -3.7190     1.6450     1.5460 h1         1 UW9       0.071200
     47 H17         -4.5610     0.1040     1.5090 h1         1 UW9       0.071200
     48 H18         -3.4940    -4.2910    -0.0970 h5         1 UW9       0.042100
     49 H19          0.8980    -4.0930     0.4440 hn         1 UW9       0.500000
     50 H20          1.3300    -2.4400     0.7200 hn         1 UW9       0.500000
     51 H21          1.4080    -0.8770    -1.1450 ha         1 UW9       0.120000
     52 H22          0.8720     1.1880     2.6130 ha         1 UW9       0.126000
     53 H23          3.2900     1.7210     2.6700 ha         1 UW9       0.118000
     54 H24          5.5250     1.5750     1.6610 ha         1 UW9       0.129000
     55 H25          3.6330    -1.0220    -2.1500 ha         1 UW9       0.113000
     56 H26          6.0380    -0.4930    -2.1040 ha         1 UW9       0.117000
     57 H27          8.2800    -0.5690    -1.2280 h1         1 UW9       0.033200
     58 H28          7.9620     0.9530    -2.1060 h1         1 UW9       0.033200
     59 H29         10.3700     0.7860    -1.4520 hc         1 UW9       0.048033
     60 H30          9.5920     2.1500    -0.6190 hc         1 UW9       0.048033
     61 H31          9.9100     0.6310     0.2580 hc         1 UW9       0.048033
@<TRIPOS>BOND
     1     1     2 1   
     2     1    32 1   
     3     1    33 1   
     4     1    34 1   
     5     2     3 1   
     6     2     4 1   
     7     2    35 1   
     8     3    36 1   
     9     3    37 1   
    10     3    38 1   
    11     4     5 1   
    12     4     8 1   
    13     4    39 1   
    14     5     6 1   
    15     5     7 1   
    16     6    40 1   
    17     6    41 1   
    18     6    42 1   
    19     7    43 1   
    20     7    44 1   
    21     7    45 1   
    22     8     9 1   
    23     8    46 1   
    24     8    47 1   
    25     9    10 1   
    26     9    11 1   
    27    10    18 2   
    28    11    12 ar  
    29    11    17 ar  
    30    12    13 ar  
    31    13    14 ar  
    32    13    48 1   
    33    14    15 ar  
    34    15    16 1   
    35    15    17 ar  
    36    16    49 1   
    37    16    50 1   
    38    17    18 1   
    39    18    19 1   
    40    19    20 ar  
    41    19    21 ar  
    42    20    25 ar  
    43    20    51 1   
    44    21    22 ar  
    45    21    52 1   
    46    22    23 ar  
    47    22    53 1   
    48    23    24 ar  
    49    23    25 ar  
    50    24    28 ar  
    51    24    54 1   
    52    25    26 ar  
    53    26    27 ar  
    54    26    55 1   
    55    27    28 ar  
    56    27    56 1   
    57    28    29 1   
    58    29    30 1   
    59    30    31 1   
    60    30    57 1   
    61    30    58 1   
    62    31    59 1   
    63    31    60 1   
    64    31    61 1   
@<TRIPOS>SUBSTRUCTURE
     1 UW9         1 TEMP              0 ****  ****    0 ROOT
