@<TRIPOS>MOLECULE
UW9
   61    64     1     0     0
SMALL
bcc


@<TRIPOS>ATOM
      1 CAB         -5.6560     3.1200     0.9720 c3         1 UW9      -0.088600
      2 CBB         -5.6210     2.1100    -0.1750 c3         1 UW9      -0.085700
      3 CAC         -5.8410     2.8390    -1.4980 c3         1 UW9      -0.088600
      4 CBC         -4.3050     1.3080    -0.1960 c3         1 UW9       0.199500
      5 NBD         -4.1810     0.3080    -1.2350 n3         1 UW9      -0.783600
      6 CAD         -5.3110    -0.5530    -1.4600 c3         1 UW9       0.188600
      7 CAE         -3.4770     0.6750    -2.4360 c3         1 UW9       0.188600
      8 CAO         -4.0370     0.6490     1.1710 c3         1 UW9       0.065300
      9 NBE         -2.8140    -0.1110     1.1510 na         1 UW9       0.033200
     10 NAR         -1.6320     0.5180     1.1010 nc         1 UW9      -0.525100
     11 C4          -2.6730    -1.4320     0.9540 ca         1 UW9       0.501800
     12 N3          -3.6420    -2.3520     0.9460 nb         1 UW9      -0.755000
     13 C2          -3.1700    -3.5690     0.7810 ca         1 UW9       0.717900
     14 N1          -1.9010    -3.9590     0.6670 nb         1 UW9      -0.841000
     15 C6          -0.9360    -3.0370     0.7040 ca         1 UW9       0.781200
     16 NAF          0.3300    -3.4570     0.6350 nv         1 UW9      -0.958500
     17 C5          -1.3040    -1.6750     0.8080 ca         1 UW9      -0.512500
     18 CAW         -0.7040    -0.3880     0.8980 cd         1 UW9       0.435500
     19 CAU          0.7040     0.0060     0.7950 ca         1 UW9      -0.105900
     20 CAM          1.5230    -0.5310    -0.1670 ca         1 UW9      -0.104000
     21 CAH          1.2290     0.9890     1.6750 ca         1 UW9      -0.091000
     22 CAJ          2.5300     1.3860     1.5870 ca         1 UW9      -0.130000
     23 CAX          3.3980     0.8340     0.6110 ca         1 UW9       0.007000
     24 CAL          4.7440     1.2260     0.5010 ca         1 UW9      -0.173000
     25 CAY          2.8760    -0.1390    -0.2800 ca         1 UW9      -0.077000
     26 CAI          3.7350    -0.6800    -1.2600 ca         1 UW9      -0.079000
     27 CAG          5.0430    -0.2890    -1.3560 ca         1 UW9      -0.200000
     28 CAT          5.5620     0.6790    -0.4630 ca         1 UW9       0.152100
     29 OAS          6.8340     1.1120    -0.4980 os         1 UW9      -0.327900
     30 CAN          7.7330     0.5900    -1.4690 c3         1 UW9       0.144400
     31 CAA          9.0700     1.2640    -1.2730 c3         1 UW9      -0.095100
     32 H1          -6.5280     3.7690     0.8820 hc         1 UW9       0.034700
     33 H2          -5.7100     2.6480     1.9530 hc         1 UW9       0.034700
     34 H3          -4.7690     3.7590     0.9560 hc         1 UW9       0.034700
     35 H4          -6.4500     1.4070    -0.0320 hc         1 UW9       0.050700
     36 H5          -5.0410     3.5590    -1.6860 hc         1 UW9       0.034700
     37 H6          -5.8860     2.1610    -2.3500 hc         1 UW9       0.034700
     38 H7          -6.7810     3.3930    -1.4770 hc         1 UW9       0.034700
     39 H8          -3.4940     2.0290    -0.3530 h1         1 UW9       0.065700
     40 H10         -6.1290    -0.0920    -2.0340 h1         1 UW9       0.027367
     41 H11         -4.9900    -1.4400    -2.0110 h1         1 UW9       0.027367
     42 H12         -5.7260    -0.9070    -0.5170 h1         1 UW9       0.027367
     43 H13         -2.5980     1.2690    -2.1860 h1         1 UW9       0.027367
     44 H14         -3.1240    -0.2250    -2.9460 h1         1 UW9       0.027367
     45 H15         -4.0700     1.2480    -3.1650 h1         1 UW9       0.027367
     46 H16         -3.9480     1.3980     1.9570 h1         1 UW9       0.071200
     47 H17         -4.8410    -0.0300     1.4520 h1         1 UW9       0.071200
     48 H18         -3.9050    -4.3670     0.7450 h5         1 UW9       0.042100
     49 H19          0.5170    -4.4460     0.6690 hn         1 UW9       0.444800
     50 H20          1.0960    -2.8350     0.8250 hn         1 UW9       0.444800
     51 H21          1.1310    -1.2480    -0.8800 ha         1 UW9       0.138000
     52 H22          0.5840     1.4160     2.4320 ha         1 UW9       0.144000
     53 H23          2.9160     2.1310     2.2720 ha         1 UW9       0.136000
     54 H24          5.1430     1.9690     1.1820 ha         1 UW9       0.147000
     55 H25          3.3490    -1.4230    -1.9480 ha         1 UW9       0.131000
     56 H26          5.6660    -0.7330    -2.1190 ha         1 UW9       0.135000
     57 H27          7.8330    -0.4940    -1.3500 h1         1 UW9       0.033200
     58 H28          7.3550     0.7810    -2.4790 h1         1 UW9       0.033200
     59 H29          9.7810     0.8740    -2.0000 hc         1 UW9       0.048033
     60 H30          8.9980     2.3420    -1.4190 hc         1 UW9       0.048033
     61 H31          9.4700     1.0720    -0.2770 hc         1 UW9       0.048033
@<TRIPOS>BOND
     1     1     2 1   
     2     1    32 1   
     3     1    33 1   
     4     1    34 1   
     5     2     3 1   
     6     2     4 1   
     7     2    35 1   
     8     3    36 1   
     9     3    37 1   
    10     3    38 1   
    11     4     5 1   
    12     4     8 1   
    13     4    39 1   
    14     5     6 1   
    15     5     7 1   
    16     6    40 1   
    17     6    41 1   
    18     6    42 1   
    19     7    43 1   
    20     7    44 1   
    21     7    45 1   
    22     8     9 1   
    23     8    46 1   
    24     8    47 1   
    25     9    10 1   
    26     9    11 1   
    27    10    18 2   
    28    11    12 ar  
    29    11    17 ar  
    30    12    13 ar  
    31    13    14 ar  
    32    13    48 1   
    33    14    15 ar  
    34    15    16 1   
    35    15    17 ar  
    36    16    49 1   
    37    16    50 1   
    38    17    18 1   
    39    18    19 1   
    40    19    20 ar  
    41    19    21 ar  
    42    20    25 ar  
    43    20    51 1   
    44    21    22 ar  
    45    21    52 1   
    46    22    23 ar  
    47    22    53 1   
    48    23    24 ar  
    49    23    25 ar  
    50    24    28 ar  
    51    24    54 1   
    52    25    26 ar  
    53    26    27 ar  
    54    26    55 1   
    55    27    28 ar  
    56    27    56 1   
    57    28    29 1   
    58    29    30 1   
    59    30    31 1   
    60    30    57 1   
    61    30    58 1   
    62    31    59 1   
    63    31    60 1   
    64    31    61 1   
@<TRIPOS>SUBSTRUCTURE
     1 UW9         1 TEMP              0 ****  ****    0 ROOT
