@<TRIPOS>MOLECULE
UWA
   50    53     1     0     0
SMALL
No Charge or Current Charge


@<TRIPOS>ATOM
      1 CAL          5.3450     2.1810    -0.8220 c3         1 UWA      -0.087600
      2 CAK          5.7560     1.0980     0.2050 c3         1 UWA      -0.081700
      3 CAM          7.1060     1.4480     0.8690 c3         1 UWA      -0.087600
      4 CAJ          4.6600     0.8450     1.2740 c3         1 UWA       0.097600
      5 NAG          3.3760     0.3640     0.7260 na         1 UWA      -0.015100
      6 NAH          2.2470     1.1730     0.5880 nc         1 UWA      -0.513100
      7 C4           3.1630    -0.9250     0.2630 ca         1 UWA       0.153500
      8 N3           3.9730    -1.9980     0.1640 nb         1 UWA      -0.232000
      9 C2           3.4270    -3.0900    -0.4220 ca         1 UWA       0.195900
     10 N1           2.1750    -3.1920    -0.9330 nb         1 UWA      -0.314000
     11 C6           1.3990    -2.1060    -0.8170 ca         1 UWA       0.456900
     12 NAN          0.1810    -2.2020    -1.3890 nv         1 UWA      -1.065900
     13 C5           1.8740    -0.9600    -0.1870 ca         1 UWA      -0.380900
     14 CAI          1.3280     0.3560     0.0590 cd         1 UWA       0.428500
     15 CAO         -0.0540     0.8010    -0.2030 ca         1 UWA      -0.083900
     16 CAT         -1.1540     0.0360     0.2390 ca         1 UWA      -0.109000
     17 CAS         -2.4710     0.4860     0.0320 ca         1 UWA      -0.002000
     18 CAX         -3.5620    -0.2920     0.4590 ca         1 UWA      -0.155000
     19 CAW         -4.8780     0.1540     0.2540 ca         1 UWA       0.150100
     20 OAY         -5.9060    -0.6540     0.6940 os         1 UWA      -0.351100
     21 CAZ         -7.2880    -0.2910     0.5340 c3         1 UWA       0.167600
     22 CBA         -8.1380    -1.4200     1.1370 c3         1 UWA      -0.095100
     23 CAV         -5.1040     1.3930    -0.3840 ca         1 UWA      -0.178000
     24 CAU         -4.0150     2.1750    -0.8090 ca         1 UWA      -0.062000
     25 CAR         -2.6980     1.7250    -0.6020 ca         1 UWA      -0.067000
     26 CAQ         -1.6060     2.5090    -1.0140 ca         1 UWA      -0.088000
     27 CAP         -0.2930     2.0550    -0.8030 ca         1 UWA      -0.096000
     28 H1           4.4420     1.8830    -1.3690 hc         1 UWA       0.036700
     29 H2           5.1460     3.1370    -0.3230 hc         1 UWA       0.036700
     30 H3           6.1420     2.3380    -1.5590 hc         1 UWA       0.036700
     31 H4           5.9040     0.1610    -0.3480 hc         1 UWA       0.062700
     32 H5           7.4200     0.6510     1.5540 hc         1 UWA       0.036700
     33 H6           7.8910     1.5710     0.1130 hc         1 UWA       0.036700
     34 H7           7.0310     2.3820     1.4400 hc         1 UWA       0.036700
     35 H8           5.0200     0.0960     1.9910 h1         1 UWA       0.071200
     36 H9           4.4760     1.7710     1.8330 h1         1 UWA       0.071200
     37 H10          4.0640    -3.9680    -0.5100 h5         1 UWA       0.045100
     38 H11          0.0150    -2.9780    -2.0230 hn         1 UWA       0.503000
     39 H12         -0.3450    -1.3510    -1.5600 hn         1 UWA       0.503000
     40 H13         -0.9830    -0.9070     0.7560 ha         1 UWA       0.124000
     41 H14         -3.3940    -1.2460     0.9510 ha         1 UWA       0.129000
     42 H15         -7.5070     0.6490     1.0560 h1         1 UWA       0.033200
     43 H16         -7.5390    -0.1720    -0.5280 h1         1 UWA       0.033200
     44 H17         -9.2040    -1.1860     1.0370 hc         1 UWA       0.048033
     45 H18         -7.9440    -2.3680     0.6210 hc         1 UWA       0.048033
     46 H19         -7.9120    -1.5480     2.2020 hc         1 UWA       0.048033
     47 H20         -6.1100     1.7650    -0.5560 ha         1 UWA       0.117000
     48 H21         -4.1980     3.1310    -1.2960 ha         1 UWA       0.114000
     49 H22         -1.7700     3.4720    -1.4920 ha         1 UWA       0.115000
     50 H23          0.5450     2.6740    -1.1180 ha         1 UWA       0.127000
@<TRIPOS>BOND
     1     1     2 1   
     2     1    28 1   
     3     1    29 1   
     4     1    30 1   
     5     2     3 1   
     6     2     4 1   
     7     2    31 1   
     8     3    32 1   
     9     3    33 1   
    10     3    34 1   
    11     4     5 1   
    12     4    35 1   
    13     4    36 1   
    14     5     6 1   
    15     5     7 1   
    16     6    14 2   
    17     7     8 ar  
    18     7    13 ar  
    19     8     9 ar  
    20     9    10 ar  
    21     9    37 1   
    22    10    11 ar  
    23    11    12 1   
    24    11    13 ar  
    25    12    38 1   
    26    12    39 1   
    27    13    14 1   
    28    14    15 1   
    29    15    16 ar  
    30    15    27 ar  
    31    16    17 ar  
    32    16    40 1   
    33    17    18 ar  
    34    17    25 ar  
    35    18    19 ar  
    36    18    41 1   
    37    19    20 1   
    38    19    23 ar  
    39    20    21 1   
    40    21    22 1   
    41    21    42 1   
    42    21    43 1   
    43    22    44 1   
    44    22    45 1   
    45    22    46 1   
    46    23    24 ar  
    47    23    47 1   
    48    24    25 ar  
    49    24    48 1   
    50    25    26 ar  
    51    26    27 ar  
    52    26    49 1   
    53    27    50 1   
@<TRIPOS>SUBSTRUCTURE
     1 UWA         1 TEMP              0 ****  ****    0 ROOT
