@<TRIPOS>MOLECULE
UWA
   50    53     1     0     0
SMALL
bcc


@<TRIPOS>ATOM
      1 CAL          4.8830     2.4480    -0.6900 c3         1 UWA      -0.087600
      2 CAK          5.5420     1.2640     0.0090 c3         1 UWA      -0.081700
      3 CAM          6.9040     1.6570     0.5730 c3         1 UWA      -0.087600
      4 CAJ          4.6810     0.7050     1.1420 c3         1 UWA       0.068300
      5 NAG          3.4220     0.1520     0.6950 na         1 UWA       0.014200
      6 NAH          2.3110     0.8970     0.6160 nc         1 UWA      -0.513100
      7 C4           3.2030    -1.1010     0.2560 ca         1 UWA       0.481800
      8 N3           4.0950    -2.0940     0.1930 nb         1 UWA      -0.758000
      9 C2           3.5730    -3.1960    -0.3040 ca         1 UWA       0.721900
     10 N1           2.3350    -3.3970    -0.7530 nb         1 UWA      -0.840000
     11 C6           1.4550    -2.3940    -0.7020 ca         1 UWA       0.785200
     12 NAN          0.2340    -2.6110    -1.1940 nv         1 UWA      -0.955500
     13 C5           1.8620    -1.1660    -0.1300 ca         1 UWA      -0.511500
     14 CAI          1.3550     0.1370     0.1340 cd         1 UWA       0.428500
     15 CAO          0.0040     0.6730    -0.0660 ca         1 UWA      -0.083900
     16 CAT         -1.1010    -0.0470     0.3150 ca         1 UWA      -0.127000
     17 CAS         -2.4090     0.4560     0.1140 ca         1 UWA      -0.002000
     18 CAX         -3.5490    -0.2780     0.4920 ca         1 UWA      -0.173000
     19 CAW         -4.8140     0.2220     0.2760 ca         1 UWA       0.150100
     20 OAY         -5.8470    -0.5450     0.6650 os         1 UWA      -0.327900
     21 CAZ         -7.1780    -0.1270     0.3870 c3         1 UWA       0.144400
     22 CBA         -8.1160    -1.1960     0.8950 c3         1 UWA      -0.095100
     23 CAV         -4.9710     1.4920    -0.3310 ca         1 UWA      -0.196000
     24 CAU         -3.8700     2.2190    -0.6960 ca         1 UWA      -0.080000
     25 CAR         -2.5640     1.7330    -0.4850 ca         1 UWA      -0.067000
     26 CAQ         -1.4100     2.4660    -0.8500 ca         1 UWA      -0.106000
     27 CAP         -0.1610     1.9570    -0.6450 ca         1 UWA      -0.114000
     28 H1           3.9180     2.1930    -1.1260 hc         1 UWA       0.036700
     29 H2           4.7260     3.2740     0.0090 hc         1 UWA       0.036700
     30 H3           5.5190     2.8150    -1.4970 hc         1 UWA       0.036700
     31 H4           5.6900     0.4630    -0.7230 hc         1 UWA       0.062700
     32 H5           7.4130     0.8070     1.0280 hc         1 UWA       0.036700
     33 H6           7.5490     2.0510    -0.2130 hc         1 UWA       0.036700
     34 H7           6.8000     2.4330     1.3340 hc         1 UWA       0.036700
     35 H8           5.2170    -0.0910     1.6600 h1         1 UWA       0.071200
     36 H9           4.4590     1.4820     1.8760 h1         1 UWA       0.071200
     37 H10          4.2350    -4.0530    -0.3690 h5         1 UWA       0.045100
     38 H11          0.0480    -3.4750    -1.6750 hn         1 UWA       0.447800
     39 H12         -0.4200    -1.8580    -1.3230 hn         1 UWA       0.447800
     40 H13         -0.9850    -1.0080     0.8040 ha         1 UWA       0.142000
     41 H14         -3.4290    -1.2520     0.9530 ha         1 UWA       0.147000
     42 H15         -7.3910     0.8280     0.8790 h1         1 UWA       0.033200
     43 H16         -7.3130     0.0180    -0.6910 h1         1 UWA       0.033200
     44 H17         -9.1430    -0.9080     0.6760 hc         1 UWA       0.048033
     45 H18         -7.9260    -2.1540     0.4110 hc         1 UWA       0.048033
     46 H19         -8.0260    -1.3250     1.9730 hc         1 UWA       0.048033
     47 H20         -5.9530     1.9050    -0.5140 ha         1 UWA       0.135000
     48 H21         -4.0050     3.1900    -1.1580 ha         1 UWA       0.132000
     49 H22         -1.5310     3.4420    -1.3060 ha         1 UWA       0.133000
     50 H23          0.7140     2.5220    -0.9400 ha         1 UWA       0.145000
@<TRIPOS>BOND
     1     1     2 1   
     2     1    28 1   
     3     1    29 1   
     4     1    30 1   
     5     2     3 1   
     6     2     4 1   
     7     2    31 1   
     8     3    32 1   
     9     3    33 1   
    10     3    34 1   
    11     4     5 1   
    12     4    35 1   
    13     4    36 1   
    14     5     6 1   
    15     5     7 1   
    16     6    14 2   
    17     7     8 ar  
    18     7    13 ar  
    19     8     9 ar  
    20     9    10 ar  
    21     9    37 1   
    22    10    11 ar  
    23    11    12 1   
    24    11    13 ar  
    25    12    38 1   
    26    12    39 1   
    27    13    14 1   
    28    14    15 1   
    29    15    16 ar  
    30    15    27 ar  
    31    16    17 ar  
    32    16    40 1   
    33    17    18 ar  
    34    17    25 ar  
    35    18    19 ar  
    36    18    41 1   
    37    19    20 1   
    38    19    23 ar  
    39    20    21 1   
    40    21    22 1   
    41    21    42 1   
    42    21    43 1   
    43    22    44 1   
    44    22    45 1   
    45    22    46 1   
    46    23    24 ar  
    47    23    47 1   
    48    24    25 ar  
    49    24    48 1   
    50    25    26 ar  
    51    26    27 ar  
    52    26    49 1   
    53    27    50 1   
@<TRIPOS>SUBSTRUCTURE
     1 UWA         1 TEMP              0 ****  ****    0 ROOT
