@<TRIPOS>MOLECULE
UWB
   56    60     1     0     0
SMALL
abcg2


@<TRIPOS>ATOM
      1 N5           0.7150    -3.0780    -0.5840 nv         1 UWB      -1.061900
      2 C           -0.5860    -2.7790    -0.5230 ca         1 UWB       0.452900
      3 C3          -1.0940    -1.6140     0.1000 ca         1 UWB      -0.378900
      4 C4          -0.6410    -0.4710     0.8170 cc         1 UWB       0.430500
      5 N2          -1.6720     0.2160     1.2530 nd         1 UWB      -0.514100
      6 N3          -2.7830    -0.4150     0.8500 na         1 UWB      -0.014100
      7 C5          -4.1000     0.1170     1.1240 c3         1 UWB       0.103600
      8 C6          -4.7550     0.7590    -0.0940 c6         1 UWB      -0.085700
      9 C10         -6.1740     1.2060     0.2530 c6         1 UWB      -0.071900
     10 C9          -6.8330     1.8680    -0.9470 c6         1 UWB       0.160800
     11 N4          -6.0330     2.9940    -1.3920 n7         1 UWB      -0.864400
     12 C8          -4.7060     2.5800    -1.8120 c6         1 UWB       0.160800
     13 C7          -3.9630     1.9410    -0.6470 c6         1 UWB      -0.071900
     14 C2          -2.4870    -1.5200     0.1420 ca         1 UWB       0.150500
     15 N1          -3.3570    -2.3760    -0.4030 nb         1 UWB      -0.230000
     16 C1          -2.7520    -3.3780    -1.0050 ca         1 UWB       0.194900
     17 N           -1.4460    -3.6280    -1.0890 nb         1 UWB      -0.312000
     18 C11          0.7270    -0.0230     1.0980 ca         1 UWB      -0.084900
     19 C16          1.6920    -0.0640     0.1220 ca         1 UWB      -0.108000
     20 C15          3.0190     0.3550     0.3850 ca         1 UWB      -0.003000
     21 C17          4.0190     0.3030    -0.6040 ca         1 UWB      -0.155000
     22 C18          5.3060     0.7050    -0.3260 ca         1 UWB       0.150100
     23 O            6.2010     0.6210    -1.3260 os         1 UWB      -0.351100
     24 C21          7.5550     0.9890    -1.0900 c3         1 UWB       0.167600
     25 C22          8.3280     0.7650    -2.3680 c3         1 UWB      -0.095100
     26 C19          5.6280     1.1800     0.9680 ca         1 UWB      -0.178000
     27 C20          4.6630     1.2420     1.9370 ca         1 UWB      -0.062000
     28 C14          3.3370     0.8370     1.6810 ca         1 UWB      -0.067000
     29 C13          2.3210     0.8930     2.6640 ca         1 UWB      -0.088000
     30 C12          1.0510     0.4780     2.3850 ca         1 UWB      -0.095000
     31 H1           1.3850    -2.5970    -0.0090 hn         1 UWB       0.500500
     32 H2           0.9830    -3.9810    -0.9390 hn         1 UWB       0.500500
     33 H3          -4.7240    -0.6970     1.4970 h1         1 UWB       0.070200
     34 H4          -3.9860     0.8430     1.9290 h1         1 UWB       0.070200
     35 H5          -4.8310    -0.0040    -0.8800 hc         1 UWB       0.066700
     36 H6          -6.7730     0.3510     0.5790 hc         1 UWB       0.050200
     37 H7          -6.1430     1.9150     1.0870 hc         1 UWB       0.050200
     38 H8          -6.9680     1.1080    -1.7350 h1         1 UWB       0.029700
     39 H9          -7.8290     2.2260    -0.6780 h1         1 UWB       0.029700
     40 H10         -6.5010     3.4570    -2.1600 hn         1 UWB       0.410000
     41 H12         -4.7330     1.8610    -2.6490 h1         1 UWB       0.029700
     42 H13         -4.1580     3.4560    -2.1660 h1         1 UWB       0.029700
     43 H14         -3.8220     2.6890     0.1420 hc         1 UWB       0.050200
     44 H15         -2.9700     1.6280    -0.9780 hc         1 UWB       0.050200
     45 H16         -3.3950    -4.1070    -1.4880 h5         1 UWB       0.045100
     46 H17          1.4440    -0.3940    -0.8800 ha         1 UWB       0.124000
     47 H18          3.7720    -0.0610    -1.5950 ha         1 UWB       0.129000
     48 H19          7.6170     2.0390    -0.7880 h1         1 UWB       0.033200
     49 H20          7.9770     0.3850    -0.2800 h1         1 UWB       0.033200
     50 H21          7.9350     1.3710    -3.1840 hc         1 UWB       0.048367
     51 H22          9.3690     1.0460    -2.2140 hc         1 UWB       0.048367
     52 H23          8.3040    -0.2820    -2.6700 hc         1 UWB       0.048367
     53 H24          6.6330     1.4970     1.2120 ha         1 UWB       0.117000
     54 H25          4.9230     1.6070     2.9230 ha         1 UWB       0.114000
     55 H26          2.5670     1.2630     3.6520 ha         1 UWB       0.115000
     56 H27          0.2860     0.5110     3.1490 ha         1 UWB       0.128000
@<TRIPOS>BOND
     1     1     2 1   
     2     1    31 1   
     3     1    32 1   
     4     2     3 ar  
     5     2    17 ar  
     6     3     4 1   
     7     3    14 ar  
     8     4     5 2   
     9     4    18 1   
    10     5     6 1   
    11     6     7 1   
    12     6    14 1   
    13     7     8 1   
    14     7    33 1   
    15     7    34 1   
    16     8     9 1   
    17     8    13 1   
    18     8    35 1   
    19     9    10 1   
    20     9    36 1   
    21     9    37 1   
    22    10    11 1   
    23    10    38 1   
    24    10    39 1   
    25    11    12 1   
    26    11    40 1   
    27    12    13 1   
    28    12    41 1   
    29    12    42 1   
    30    13    43 1   
    31    13    44 1   
    32    14    15 ar  
    33    15    16 ar  
    34    16    17 ar  
    35    16    45 1   
    36    18    19 ar  
    37    18    30 ar  
    38    19    20 ar  
    39    19    46 1   
    40    20    21 ar  
    41    20    28 ar  
    42    21    22 ar  
    43    21    47 1   
    44    22    23 1   
    45    22    26 ar  
    46    23    24 1   
    47    24    25 1   
    48    24    48 1   
    49    24    49 1   
    50    25    50 1   
    51    25    51 1   
    52    25    52 1   
    53    26    27 ar  
    54    26    53 1   
    55    27    28 ar  
    56    27    54 1   
    57    28    29 ar  
    58    29    30 ar  
    59    29    55 1   
    60    30    56 1   
@<TRIPOS>SUBSTRUCTURE
     1 UWB         1 TEMP              0 ****  ****    0 ROOT
