@<TRIPOS>MOLECULE
UWB
   56    60     1     0     0
SMALL
No Charge or Current Charge


@<TRIPOS>ATOM
      1 N5           0.8120    -2.9890    -0.2100 nv         1 UWB      -1.061900
      2 C           -0.5080    -2.7300    -0.3120 ca         1 UWB       0.452900
      3 C3          -1.1230    -1.6000     0.2200 ca         1 UWB      -0.378900
      4 C4          -0.6580    -0.4600     0.9770 cc         1 UWB       0.430500
      5 N2          -1.6740     0.2960     1.4120 nd         1 UWB      -0.514100
      6 N3          -2.7840    -0.3460     0.8730 na         1 UWB      -0.014100
      7 C5          -4.1600     0.1460     1.0740 c3         1 UWB       0.103600
      8 C6          -4.8130     0.8110    -0.1740 c6         1 UWB      -0.085700
      9 C10         -6.2920     1.1990     0.1000 c6         1 UWB      -0.071900
     10 C9          -6.9300     1.8920    -1.1300 c6         1 UWB       0.160800
     11 N4          -6.1390     3.0720    -1.5530 n7         1 UWB      -0.864400
     12 C8          -4.7310     2.7330    -1.8680 c6         1 UWB       0.160800
     13 C7          -4.0280     2.0620    -0.6620 c6         1 UWB      -0.071900
     14 C2          -2.4840    -1.4920     0.1600 ca         1 UWB       0.150500
     15 N1          -3.2460    -2.4190    -0.4510 nb         1 UWB      -0.230000
     16 C1          -2.5700    -3.4640    -0.9840 ca         1 UWB       0.194900
     17 N           -1.2320    -3.6720    -0.9330 nb         1 UWB      -0.312000
     18 C11          0.7430    -0.1240     1.2510 ca         1 UWB      -0.084900
     19 C16          1.6930    -0.0860     0.2080 ca         1 UWB      -0.108000
     20 C15          3.0250     0.2850     0.4650 ca         1 UWB      -0.003000
     21 C17          3.9700     0.3020    -0.5770 ca         1 UWB      -0.155000
     22 C18          5.3010     0.6720    -0.3260 ca         1 UWB       0.150100
     23 O            6.1820     0.6680    -1.3880 os         1 UWB      -0.351100
     24 C21          7.5650     1.0300    -1.2380 c3         1 UWB       0.167600
     25 C22          8.2290     0.9090    -2.6190 c3         1 UWB      -0.095100
     26 C19          5.6910     1.0310     0.9830 ca         1 UWB      -0.178000
     27 C20          4.7480     1.0190     2.0270 ca         1 UWB      -0.062000
     28 C14          3.4150     0.6470     1.7710 ca         1 UWB      -0.067000
     29 C13          2.4650     0.6460     2.8080 ca         1 UWB      -0.088000
     30 C12          1.1350     0.2750     2.5450 ca         1 UWB      -0.095000
     31 H1           1.3630    -2.4470     0.4480 hn         1 UWB       0.500500
     32 H2           1.1340    -3.9310    -0.4150 hn         1 UWB       0.500500
     33 H3          -4.7810    -0.7040     1.3860 h1         1 UWB       0.070200
     34 H4          -4.1560     0.8680     1.9000 h1         1 UWB       0.070200
     35 H5          -4.7990     0.0570    -0.9750 hc         1 UWB       0.066700
     36 H6          -6.8760     0.3060     0.3600 hc         1 UWB       0.050200
     37 H7          -6.3490     1.8720     0.9670 hc         1 UWB       0.050200
     38 H8          -6.9910     1.1750    -1.9620 h1         1 UWB       0.029700
     39 H9          -7.9560     2.2060    -0.8850 h1         1 UWB       0.029700
     40 H10         -6.5760     3.4800    -2.3900 hn         1 UWB       0.410000
     41 H12         -4.7040     2.0510    -2.7320 h1         1 UWB       0.029700
     42 H13         -4.1870     3.6470    -2.1490 h1         1 UWB       0.029700
     43 H14         -3.9340     2.7890     0.1570 hc         1 UWB       0.050200
     44 H15         -3.0050     1.7840    -0.9500 hc         1 UWB       0.050200
     45 H16         -3.1650    -4.2250    -1.4870 h5         1 UWB       0.045100
     46 H17          1.3900    -0.3370    -0.8070 ha         1 UWB       0.124000
     47 H18          3.6760     0.0270    -1.5860 ha         1 UWB       0.129000
     48 H19          7.6610     2.0620    -0.8760 h1         1 UWB       0.033200
     49 H20          8.0690     0.3590    -0.5310 h1         1 UWB       0.033200
     50 H21          7.7480     1.5810    -3.3390 hc         1 UWB       0.048367
     51 H22          9.2900     1.1770    -2.5540 hc         1 UWB       0.048367
     52 H23          8.1560    -0.1190    -2.9940 hc         1 UWB       0.048367
     53 H24          6.7120     1.3220     1.2090 ha         1 UWB       0.117000
     54 H25          5.0550     1.3000     3.0320 ha         1 UWB       0.114000
     55 H26          2.7530     0.9360     3.8160 ha         1 UWB       0.115000
     56 H27          0.4080     0.2860     3.3540 ha         1 UWB       0.128000
@<TRIPOS>BOND
     1     1     2 1   
     2     1    31 1   
     3     1    32 1   
     4     2     3 ar  
     5     2    17 ar  
     6     3     4 1   
     7     3    14 ar  
     8     4     5 2   
     9     4    18 1   
    10     5     6 1   
    11     6     7 1   
    12     6    14 1   
    13     7     8 1   
    14     7    33 1   
    15     7    34 1   
    16     8     9 1   
    17     8    13 1   
    18     8    35 1   
    19     9    10 1   
    20     9    36 1   
    21     9    37 1   
    22    10    11 1   
    23    10    38 1   
    24    10    39 1   
    25    11    12 1   
    26    11    40 1   
    27    12    13 1   
    28    12    41 1   
    29    12    42 1   
    30    13    43 1   
    31    13    44 1   
    32    14    15 ar  
    33    15    16 ar  
    34    16    17 ar  
    35    16    45 1   
    36    18    19 ar  
    37    18    30 ar  
    38    19    20 ar  
    39    19    46 1   
    40    20    21 ar  
    41    20    28 ar  
    42    21    22 ar  
    43    21    47 1   
    44    22    23 1   
    45    22    26 ar  
    46    23    24 1   
    47    24    25 1   
    48    24    48 1   
    49    24    49 1   
    50    25    50 1   
    51    25    51 1   
    52    25    52 1   
    53    26    27 ar  
    54    26    53 1   
    55    27    28 ar  
    56    27    54 1   
    57    28    29 ar  
    58    29    30 ar  
    59    29    55 1   
    60    30    56 1   
@<TRIPOS>SUBSTRUCTURE
     1 UWB         1 TEMP              0 ****  ****    0 ROOT
