@<TRIPOS>MOLECULE
UWD
   22    23     1     0     0
SMALL
No Charge or Current Charge


@<TRIPOS>ATOM
      1 N1         -20.1470    11.4530    25.1620 nc         1 UWD      -0.359700
      2 N3         -21.2310    12.7710    26.5680 na         1 UWD       0.027200
      3 C4         -23.4420    12.0900    26.2580 cc         1 UWD      -0.082000
      4 C5         -23.8580    13.0120    27.1940 cd         1 UWD      -0.089000
      5 C6         -22.8650    13.8460    27.8300 cd         1 UWD      -0.160000
      6 C7         -21.5090    13.7470    27.5290 cc         1 UWD      -0.074000
      7 N          -18.4880    14.4780    26.1350 n7         1 UWD      -0.880400
      8 C          -18.5880    14.8300    24.7020 c3         1 UWD       0.142100
      9 C2         -20.0000    12.4280    26.0610 cd         1 UWD       0.311800
     10 C3         -22.1160    11.9520    25.9250 cd         1 UWD      -0.106000
     11 N2         -21.5020    11.1510    25.0760 nc         1 UWD      -0.099000
     12 H1         -24.1800    11.4590    25.7720 ha         1 UWD       0.146000
     13 H2         -24.9090    13.1090    27.4450 ha         1 UWD       0.124000
     14 H3         -23.1870    14.5770    28.5670 ha         1 UWD       0.132000
     15 H4         -20.7000    14.3320    27.9500 h4         1 UWD       0.164000
     16 H5         -17.5600    14.7740    26.4710 hn         1 UWD       0.419000
     17 H7         -18.4430    15.9090    24.5580 h1         1 UWD       0.037033
     18 H8         -17.8240    14.3030    24.1130 h1         1 UWD       0.037033
     19 H9         -19.5750    14.5660    24.2980 h1         1 UWD       0.037033
     20 H10        -17.8660    12.4410    25.9680 h1         1 UWD       0.058700
     21 H11        -18.5350    12.8720    27.5370 h1         1 UWD       0.058700
     22 C1         -18.6570    13.0280    26.4570 c3         1 UWD       0.153500
@<TRIPOS>BOND
     1     1     9 2   
     2     1    11 1   
     3     2     6 1   
     4     2     9 1   
     5     2    10 1   
     6     3     4 2   
     7     3    10 1   
     8     3    12 1   
     9     4     5 1   
    10     4    13 1   
    11     5     6 2   
    12     5    14 1   
    13     6    15 1   
    14     7     8 1   
    15     7    16 1   
    16     7    22 1   
    17     8    17 1   
    18     8    18 1   
    19     8    19 1   
    20     9    22 1   
    21    10    11 2   
    22    20    22 1   
    23    21    22 1   
@<TRIPOS>SUBSTRUCTURE
     1 UWD         1 TEMP              0 ****  ****    0 ROOT
