@<TRIPOS>MOLECULE
UWD
   22    23     1     0     0
SMALL
abcg2


@<TRIPOS>ATOM
      1 N1         -20.1620    11.3820    25.1970 nc         1 UWD      -0.359700
      2 N3         -21.1590    12.7770    26.5260 na         1 UWD       0.027200
      3 C4         -23.4510    12.0870    26.2970 cc         1 UWD      -0.082000
      4 C5         -23.7910    13.0580    27.1840 cd         1 UWD      -0.089000
      5 C6         -22.7970    13.9100    27.7500 cd         1 UWD      -0.160000
      6 C7         -21.4950    13.7640    27.4150 cc         1 UWD      -0.074000
      7 N          -18.6520    14.4150    26.1950 n7         1 UWD      -0.880400
      8 C          -18.6350    14.8180    24.8030 c3         1 UWD       0.142100
      9 C2         -19.9580    12.3770    26.0150 cd         1 UWD       0.311800
     10 C3         -22.0870    11.9360    25.9550 cd         1 UWD      -0.106000
     11 N2         -21.4760    11.0930    25.1510 nc         1 UWD      -0.099000
     12 H1         -24.1820    11.4270    25.8520 ha         1 UWD       0.146000
     13 H2         -24.8250    13.1950    27.4690 ha         1 UWD       0.124000
     14 H3         -23.0750    14.6840    28.4500 ha         1 UWD       0.132000
     15 H4         -20.6920    14.3850    27.7780 h4         1 UWD       0.164000
     16 H5         -17.8530    14.8050    26.6730 hn         1 UWD       0.419000
     17 H7         -18.5580    15.9020    24.7390 h1         1 UWD       0.037033
     18 H8         -17.8080    14.3830    24.2250 h1         1 UWD       0.037033
     19 H9         -19.5670    14.5290    24.3130 h1         1 UWD       0.037033
     20 H10        -17.8800    12.4560    25.7850 h1         1 UWD       0.058700
     21 H11        -18.4320    12.7680    27.4290 h1         1 UWD       0.058700
     22 C1         -18.6450    12.9780    26.3770 c3         1 UWD       0.153500
@<TRIPOS>BOND
     1     1     9 2   
     2     1    11 1   
     3     2     6 1   
     4     2     9 1   
     5     2    10 1   
     6     3     4 2   
     7     3    10 1   
     8     3    12 1   
     9     4     5 1   
    10     4    13 1   
    11     5     6 2   
    12     5    14 1   
    13     6    15 1   
    14     7     8 1   
    15     7    16 1   
    16     7    22 1   
    17     8    17 1   
    18     8    18 1   
    19     8    19 1   
    20     9    22 1   
    21    10    11 2   
    22    20    22 1   
    23    21    22 1   
@<TRIPOS>SUBSTRUCTURE
     1 UWD         1 TEMP              0 ****  ****    0 ROOT
