@<TRIPOS>MOLECULE
UWG
   29    30     1     0     0
SMALL
No Charge or Current Charge


@<TRIPOS>ATOM
      1 N1         -19.8560    12.6170    26.2050 na         1 UWG       0.134800
      2 C4         -20.9380    13.3880    26.6300 cc         1 UWG      -0.162000
      3 C5         -18.4400    13.0340    26.1080 c5         1 UWG       0.096300
      4 C6         -17.9710    13.4500    24.6870 c5         1 UWG      -0.096900
      5 C7         -18.6160    14.8520    24.5450 c5         1 UWG      -0.083400
      6 C8         -18.3520    15.5070    25.9350 c5         1 UWG      -0.083400
      7 N          -20.2090    11.3290    25.8540 nc         1 UWG      -0.538800
      8 C          -23.9400    12.0340    28.0790 c3         1 UWG      -0.127100
      9 O          -24.2760    12.5650    25.7470 oh         1 UWG      -0.654000
     10 C1         -23.4450    12.8470    26.8710 c3         1 UWG       0.260600
     11 C2         -22.0110    12.5450    26.5350 cd         1 UWG      -0.208300
     12 C3         -21.5120    11.3140    26.0590 cd         1 UWG       0.266900
     13 C9         -18.0290    14.3150    26.8970 c5         1 UWG      -0.096900
     14 H1         -20.8590    14.4190    26.9490 h4         1 UWG       0.151000
     15 H2         -17.8360    12.1880    26.4610 h1         1 UWG       0.086700
     16 H3         -18.3080    12.7520    23.9120 hc         1 UWG       0.058950
     17 H4         -16.8780    13.5020    24.6240 hc         1 UWG       0.058950
     18 H5         -18.1760    15.4290    23.7230 hc         1 UWG       0.047450
     19 H6         -19.6900    14.7770    24.3400 hc         1 UWG       0.047450
     20 H7         -17.5110    16.2090    25.8920 hc         1 UWG       0.047450
     21 H8         -19.2220    16.0830    26.2710 hc         1 UWG       0.047450
     22 H10        -24.9730    12.3020    28.3320 hc         1 UWG       0.040700
     23 H11        -23.9020    10.9580    27.8700 hc         1 UWG       0.040700
     24 H12        -25.1850    12.8350    25.9980 ho         1 UWG       0.438000
     25 H13        -23.5190    13.9140    27.1240 h1         1 UWG       0.026700
     26 H14        -22.0670    10.4060    25.8600 h4         1 UWG       0.042100
     27 H15        -16.9560    14.2920    27.1210 hc         1 UWG       0.058950
     28 H16        -18.5410    14.3990    27.8620 hc         1 UWG       0.058950
     29 H9         -23.3130    12.2360    28.9550 hc         1 UWG       0.040700
@<TRIPOS>BOND
     1     1     2 1   
     2     1     3 1   
     3     1     7 1   
     4     2    11 2   
     5     2    14 1   
     6     3     4 1   
     7     3    13 1   
     8     3    15 1   
     9     4     5 1   
    10     4    16 1   
    11     4    17 1   
    12     5     6 1   
    13     5    18 1   
    14     5    19 1   
    15     6    13 1   
    16     6    20 1   
    17     6    21 1   
    18     7    12 2   
    19     8    10 1   
    20     8    22 1   
    21     8    23 1   
    22     8    29 1   
    23     9    10 1   
    24     9    24 1   
    25    10    11 1   
    26    10    25 1   
    27    11    12 1   
    28    12    26 1   
    29    13    27 1   
    30    13    28 1   
@<TRIPOS>SUBSTRUCTURE
     1 UWG         1 TEMP              0 ****  ****    0 ROOT
