@<TRIPOS>MOLECULE
UWG
   29    30     1     0     0
SMALL
abcg2


@<TRIPOS>ATOM
      1 N1         -19.8200    12.5850    26.2000 na         1 UWG       0.134800
      2 C4         -20.8910    13.3140    26.5700 cc         1 UWG      -0.162000
      3 C5         -18.4290    13.0000    26.0820 c5         1 UWG       0.096300
      4 C6         -18.1080    13.4770    24.6640 c5         1 UWG      -0.096900
      5 C7         -18.6400    14.9090    24.6240 c5         1 UWG      -0.083400
      6 C8         -18.4090    15.4590    26.0470 c5         1 UWG      -0.083400
      7 N          -20.1630    11.3580    25.8200 nc         1 UWG      -0.538800
      8 C          -23.8210    12.2740    28.1320 c3         1 UWG      -0.127100
      9 O          -24.2250    12.3140    25.7350 oh         1 UWG      -0.654000
     10 C1         -23.4180    12.8360    26.7730 c3         1 UWG       0.260600
     11 C2         -21.9990    12.5080    26.4390 cd         1 UWG      -0.208300
     12 C3         -21.4750    11.2930    25.9650 cd         1 UWG       0.266900
     13 C9         -18.1160    14.2290    26.9350 c5         1 UWG      -0.096900
     14 H1         -20.8060    14.3380    26.8970 h4         1 UWG       0.151000
     15 H2         -17.8300    12.1370    26.3730 h1         1 UWG       0.086700
     16 H3         -18.5270    12.8270    23.8950 hc         1 UWG       0.058950
     17 H4         -17.0220    13.4700    24.5430 hc         1 UWG       0.058950
     18 H5         -18.1470    15.5100    23.8600 hc         1 UWG       0.047450
     19 H6         -19.7050    14.9060    24.3820 hc         1 UWG       0.047450
     20 H7         -17.5640    16.1480    26.0680 hc         1 UWG       0.047450
     21 H8         -19.2730    16.0210    26.4040 hc         1 UWG       0.047450
     22 H10        -24.8630    12.5110    28.3600 hc         1 UWG       0.040700
     23 H11        -23.7020    11.1890    28.1590 hc         1 UWG       0.040700
     24 H12        -25.1470    12.4450    25.9820 ho         1 UWG       0.438000
     25 H13        -23.5150    13.9310    26.8220 h1         1 UWG       0.026700
     26 H14        -22.0020    10.3810    25.7290 h4         1 UWG       0.042100
     27 H15        -17.0550    14.1910    27.1830 hc         1 UWG       0.058950
     28 H16        -18.6550    14.2350    27.8830 hc         1 UWG       0.058950
     29 H9         -23.2050    12.7030    28.9220 hc         1 UWG       0.040700
@<TRIPOS>BOND
     1     1     2 1   
     2     1     3 1   
     3     1     7 1   
     4     2    11 2   
     5     2    14 1   
     6     3     4 1   
     7     3    13 1   
     8     3    15 1   
     9     4     5 1   
    10     4    16 1   
    11     4    17 1   
    12     5     6 1   
    13     5    18 1   
    14     5    19 1   
    15     6    13 1   
    16     6    20 1   
    17     6    21 1   
    18     7    12 2   
    19     8    10 1   
    20     8    22 1   
    21     8    23 1   
    22     8    29 1   
    23     9    10 1   
    24     9    24 1   
    25    10    11 1   
    26    10    25 1   
    27    11    12 1   
    28    12    26 1   
    29    13    27 1   
    30    13    28 1   
@<TRIPOS>SUBSTRUCTURE
     1 UWG         1 TEMP              0 ****  ****    0 ROOT
