@<TRIPOS>MOLECULE
UWH
   41    42     1     0     0
SMALL
abcg2


@<TRIPOS>ATOM
      1 C01         21.3360   -21.0630     4.2990 c          1 UWH       0.577500
      2 C02         22.3720   -21.0570     3.2470 ca         1 UWH      -0.151600
      3 C03         22.5950   -19.8870     2.5270 ca         1 UWH      -0.083000
      4 C04         23.5610   -19.8490     1.5350 ca         1 UWH      -0.033000
      5 C05         24.2930   -20.9990     1.2670 ca         1 UWH      -0.277500
      6 C09         23.6880   -20.2880    -1.9040 c6         1 UWH       0.202800
      7 C10         23.5490   -20.4140    -3.4180 c6         1 UWH       0.183800
      8 C12         23.0990   -22.0840    -5.1450 c3         1 UWH       0.152800
      9 C13         21.5710   -22.0660    -5.2660 c3         1 UWH       0.116600
     10 C15         21.2180   -21.3720    -7.4970 c3         1 UWH       0.141900
     11 C16         23.2050   -22.7220    -2.7830 c6         1 UWH       0.183800
     12 C17         24.2320   -22.6870    -1.6590 c6         1 UWH       0.202800
     13 C19         24.0850   -22.1740     1.9830 ca         1 UWH      -0.033000
     14 C20         23.1220   -22.1990     2.9740 ca         1 UWH      -0.083000
     15 N08         24.6330   -21.2910    -1.4230 n3         1 UWH      -0.729500
     16 N11         23.6130   -21.8080    -3.8230 n3         1 UWH      -0.743600
     17 O07         26.3750   -22.1130     0.1440 o          1 UWH      -0.531000
     18 O14         21.1250   -22.4120    -6.5560 os         1 UWH      -0.447000
     19 O18         26.0160   -19.6380    -0.1490 o          1 UWH      -0.531000
     20 S06         25.4820   -20.9840    -0.0560 sy         1 UWH       1.165600
     21 H1          20.8050   -20.1030     4.4270 h4         1 UWH      -0.004800
     22 H4          22.0170   -18.9980     2.7470 ha         1 UWH       0.129500
     23 H5          23.7380   -18.9300     0.9920 ha         1 UWH       0.139000
     24 H6          24.0490   -19.2900    -1.6650 h1         1 UWH       0.056700
     25 H7          22.7160   -20.4060    -1.4140 h1         1 UWH       0.056700
     26 H8          24.3550   -19.8630    -3.9120 h1         1 UWH       0.039950
     27 H9          22.6090   -19.9200    -3.6950 h1         1 UWH       0.039950
     28 H10         23.4590   -23.0680    -5.4600 h1         1 UWH       0.061700
     29 H11         23.5420   -21.3570    -5.8320 h1         1 UWH       0.061700
     30 H12         21.1690   -21.0880    -4.9660 h1         1 UWH       0.041700
     31 H13         21.1440   -22.8090    -4.5860 h1         1 UWH       0.041700
     32 H14         20.7660   -21.7220    -8.4240 h1         1 UWH       0.029367
     33 H15         20.6780   -20.4750    -7.1690 h1         1 UWH       0.029367
     34 H16         22.2500   -21.0790    -7.7160 h1         1 UWH       0.029367
     35 H17         22.1980   -22.5260    -2.3870 h1         1 UWH       0.039950
     36 H18         23.1850   -23.7380    -3.1840 h1         1 UWH       0.039950
     37 H19         23.7980   -23.1490    -0.7660 h1         1 UWH       0.056700
     38 H20         25.1130   -23.2590    -1.9490 h1         1 UWH       0.056700
     39 H21         24.6740   -23.0580     1.7810 ha         1 UWH       0.139000
     40 H22         22.9580   -23.1070     3.5400 ha         1 UWH       0.129500
     41 O1          21.0680   -22.0230     4.9780 o          1 UWH      -0.501100
@<TRIPOS>BOND
     1     1     2 1   
     2     1    21 1   
     3     1    41 2   
     4     2     3 ar  
     5     2    14 ar  
     6     3     4 ar  
     7     3    22 1   
     8     4     5 ar  
     9     4    23 1   
    10     5    13 ar  
    11     5    20 1   
    12     6     7 1   
    13     6    15 1   
    14     6    24 1   
    15     6    25 1   
    16     7    16 1   
    17     7    26 1   
    18     7    27 1   
    19     8     9 1   
    20     8    16 1   
    21     8    28 1   
    22     8    29 1   
    23     9    18 1   
    24     9    30 1   
    25     9    31 1   
    26    10    18 1   
    27    10    32 1   
    28    10    33 1   
    29    10    34 1   
    30    11    12 1   
    31    11    16 1   
    32    11    35 1   
    33    11    36 1   
    34    12    15 1   
    35    12    37 1   
    36    12    38 1   
    37    13    14 ar  
    38    13    39 1   
    39    14    40 1   
    40    15    20 1   
    41    17    20 2   
    42    19    20 2   
@<TRIPOS>SUBSTRUCTURE
     1 UWH         1 TEMP              0 ****  ****    0 ROOT
