@<TRIPOS>MOLECULE
UWH
   41    42     1     0     0
SMALL
No Charge or Current Charge


@<TRIPOS>ATOM
      1 C01         21.4920   -18.9720     4.0320 c          1 UWH       0.577500
      2 C02         22.3910   -19.7920     3.1430 ca         1 UWH      -0.151600
      3 C03         23.3650   -19.1520     2.3480 ca         1 UWH      -0.083000
      4 C04         24.2100   -19.9040     1.5140 ca         1 UWH      -0.033000
      5 C05         24.0920   -21.3070     1.4650 ca         1 UWH      -0.277500
      6 C09         23.0150   -21.9920    -1.2390 c6         1 UWH       0.202800
      7 C10         22.4440   -21.9410    -2.6990 c6         1 UWH       0.183800
      8 C12         22.8690   -21.1190    -5.0400 c3         1 UWH       0.152800
      9 C13         22.2850   -22.3380    -5.8170 c3         1 UWH       0.116600
     10 C15         20.7410   -21.0800    -7.2450 c3         1 UWH       0.141900
     11 C16         24.6870   -22.2300    -3.6920 c6         1 UWH       0.183800
     12 C17         25.1420   -22.7190    -2.2710 c6         1 UWH       0.202800
     13 C19         23.1190   -21.9530     2.2560 ca         1 UWH      -0.033000
     14 C20         22.2750   -21.1980     3.0900 ca         1 UWH      -0.083000
     15 N08         24.5100   -21.9610    -1.1580 n3         1 UWH      -0.729500
     16 N11         23.4280   -21.4120    -3.6900 n3         1 UWH      -0.743600
     17 O07         25.0050   -23.6960     0.6450 o          1 UWH      -0.531000
     18 O14         21.8920   -21.9430    -7.1520 os         1 UWH      -0.447000
     19 O18         26.4890   -21.6130     0.3790 o          1 UWH      -0.531000
     20 S06         25.1730   -22.2620     0.3780 sy         1 UWH       1.165600
     21 H1          21.6580   -17.8720     4.0060 h4         1 UWH      -0.004800
     22 H4          23.4680   -18.0690     2.3730 ha         1 UWH       0.129500
     23 H5          24.9520   -19.3920     0.9020 ha         1 UWH       0.139000
     24 H6          22.6010   -21.1330    -0.6920 h1         1 UWH       0.056700
     25 H7          22.6170   -22.8950    -0.7530 h1         1 UWH       0.056700
     26 H8          21.5270   -21.3330    -2.6970 h1         1 UWH       0.039950
     27 H9          22.1460   -22.9610    -2.9850 h1         1 UWH       0.039950
     28 H10         23.6500   -20.6630    -5.6640 h1         1 UWH       0.061700
     29 H11         22.0770   -20.3670    -4.9330 h1         1 UWH       0.061700
     30 H12         21.4300   -22.7540    -5.2690 h1         1 UWH       0.041700
     31 H13         23.0490   -23.1210    -5.8830 h1         1 UWH       0.041700
     32 H14         20.4710   -20.9230    -8.2970 h1         1 UWH       0.029367
     33 H15         19.8770   -21.5240    -6.7340 h1         1 UWH       0.029367
     34 H16         20.9430   -20.0960    -6.8020 h1         1 UWH       0.029367
     35 H17         24.5800   -23.1190    -4.3290 h1         1 UWH       0.039950
     36 H18         25.5000   -21.6320    -4.1280 h1         1 UWH       0.039950
     37 H19         24.8910   -23.7860    -2.1790 h1         1 UWH       0.056700
     38 H20         26.2390   -22.6490    -2.2200 h1         1 UWH       0.056700
     39 H21         23.0090   -23.0360     2.2300 ha         1 UWH       0.139000
     40 H22         21.5290   -21.7110     3.6940 ha         1 UWH       0.129500
     41 O1          20.6230   -19.4570     4.7490 o          1 UWH      -0.501100
@<TRIPOS>BOND
     1     1     2 1   
     2     1    21 1   
     3     1    41 2   
     4     2     3 ar  
     5     2    14 ar  
     6     3     4 ar  
     7     3    22 1   
     8     4     5 ar  
     9     4    23 1   
    10     5    13 ar  
    11     5    20 1   
    12     6     7 1   
    13     6    15 1   
    14     6    24 1   
    15     6    25 1   
    16     7    16 1   
    17     7    26 1   
    18     7    27 1   
    19     8     9 1   
    20     8    16 1   
    21     8    28 1   
    22     8    29 1   
    23     9    18 1   
    24     9    30 1   
    25     9    31 1   
    26    10    18 1   
    27    10    32 1   
    28    10    33 1   
    29    10    34 1   
    30    11    12 1   
    31    11    16 1   
    32    11    35 1   
    33    11    36 1   
    34    12    15 1   
    35    12    37 1   
    36    12    38 1   
    37    13    14 ar  
    38    13    39 1   
    39    14    40 1   
    40    15    20 1   
    41    17    20 2   
    42    19    20 2   
@<TRIPOS>SUBSTRUCTURE
     1 UWH         1 TEMP              0 ****  ****    0 ROOT
