@<TRIPOS>MOLECULE
UWI
   20    20     1     0     0
SMALL
No Charge or Current Charge


@<TRIPOS>ATOM
      1 O1          25.6920    23.4690    32.0270 o          1 UWI      -0.606100
      2 C1          21.4390    25.0940    33.7740 c6         1 UWI       0.154100
      3 C5          24.8080    24.2900    31.8450 c          1 UWI       0.602100
      4 C4          23.8940    24.7910    32.9830 c6         1 UWI      -0.146700
      5 C3          24.0070    26.3380    33.1870 c6         1 UWI      -0.101400
      6 C2          22.9980    26.8790    34.2410 c6         1 UWI       0.154100
      7 N           24.5990    24.7960    30.6090 nt         1 UWI      -0.610000
      8 C           22.3860    24.4830    32.7010 c6         1 UWI      -0.101400
      9 O           22.1910    25.8080    34.7780 os         1 UWI      -0.457000
     10 H2          20.8650    24.2950    34.2650 h1         1 UWI       0.047450
     11 H3          24.2080    24.2750    33.9020 hc         1 UWI       0.092700
     12 H4          25.0300    26.5970    33.4940 hc         1 UWI       0.050950
     13 H5          23.8350    26.8660    32.2390 hc         1 UWI       0.050950
     14 H6          23.5420    27.3590    35.0680 h1         1 UWI       0.047450
     15 H7          22.3420    27.6340    33.7860 h1         1 UWI       0.047450
     16 H8          25.1810    24.4880    29.8440 hn         1 UWI       0.313500
     17 H9          23.8680    25.4740    30.4600 hn         1 UWI       0.313500
     18 H10         22.0910    24.8700    31.7160 hc         1 UWI       0.050950
     19 H11         22.2320    23.3960    32.6540 hc         1 UWI       0.050950
     20 H1          20.7230    25.7820    33.3010 h1         1 UWI       0.047450
@<TRIPOS>BOND
     1     1     3 2   
     2     2     8 1   
     3     2     9 1   
     4     2    10 1   
     5     2    20 1   
     6     3     4 1   
     7     3     7 1   
     8     4     5 1   
     9     4     8 1   
    10     4    11 1   
    11     5     6 1   
    12     5    12 1   
    13     5    13 1   
    14     6     9 1   
    15     6    14 1   
    16     6    15 1   
    17     7    16 1   
    18     7    17 1   
    19     8    18 1   
    20     8    19 1   
@<TRIPOS>SUBSTRUCTURE
     1 UWI         1 TEMP              0 ****  ****    0 ROOT
