@<TRIPOS>MOLECULE
UWI
   20    20     1     0     0
SMALL
abcg2


@<TRIPOS>ATOM
      1 O1          25.3880    23.2430    31.9760 o          1 UWI      -0.606100
      2 C1          21.5430    24.9810    33.9340 c6         1 UWI       0.154100
      3 C5          24.6910    24.2470    31.8220 c          1 UWI       0.602100
      4 C4          23.8380    24.8000    32.9530 c6         1 UWI      -0.146700
      5 C3          24.1360    26.2760    33.3030 c6         1 UWI      -0.101400
      6 C2          22.9130    26.9190    33.9680 c6         1 UWI       0.154100
      7 N           24.6250    24.8930    30.6410 nt         1 UWI      -0.610000
      8 C           22.3370    24.6400    32.6670 c6         1 UWI      -0.101400
      9 O           22.1980    25.9620    34.7480 os         1 UWI      -0.457000
     10 H2          21.4390    24.0990    34.5670 h1         1 UWI       0.047450
     11 H3          24.0820    24.1800    33.8150 hc         1 UWI       0.092700
     12 H4          24.9990    26.3170    33.9700 hc         1 UWI       0.050950
     13 H5          24.3920    26.8500    32.4100 hc         1 UWI       0.050950
     14 H6          23.2090    27.7160    34.6490 h1         1 UWI       0.047450
     15 H7          22.2450    27.3520    33.2140 h1         1 UWI       0.047450
     16 H8          25.1540    24.5470    29.8560 hn         1 UWI       0.313500
     17 H9          24.0520    25.7080    30.5060 hn         1 UWI       0.313500
     18 H10         22.0470    25.2980    31.8450 hc         1 UWI       0.050950
     19 H11         22.1020    23.6190    32.3600 hc         1 UWI       0.050950
     20 H1          20.5400    25.3370    33.6680 h1         1 UWI       0.047450
@<TRIPOS>BOND
     1     1     3 2   
     2     2     8 1   
     3     2     9 1   
     4     2    10 1   
     5     2    20 1   
     6     3     4 1   
     7     3     7 1   
     8     4     5 1   
     9     4     8 1   
    10     4    11 1   
    11     5     6 1   
    12     5    12 1   
    13     5    13 1   
    14     6     9 1   
    15     6    14 1   
    16     6    15 1   
    17     7    16 1   
    18     7    17 1   
    19     8    18 1   
    20     8    19 1   
@<TRIPOS>SUBSTRUCTURE
     1 UWI         1 TEMP              0 ****  ****    0 ROOT
