@<TRIPOS>MOLECULE
UWK
   36    37     1     0     0
SMALL
abcg2


@<TRIPOS>ATOM
      1 C01         19.7150    21.1190     4.2530 c          1 UWK       0.578500
      2 C02         18.7710    21.1220     3.1170 ca         1 UWK      -0.151600
      3 C03         17.8710    22.1700     2.9320 ca         1 UWK      -0.083000
      4 C04         16.9920    22.1460     1.8650 ca         1 UWK      -0.033000
      5 C05         17.0220    21.0680     0.9860 ca         1 UWK      -0.276500
      6 C09         17.0170    23.2400    -1.5090 c6         1 UWK       0.158800
      7 C10         17.2470    23.8410    -2.8960 c6         1 UWK       0.181300
      8 C13         18.4190    23.1400    -3.5670 c6         1 UWK      -0.069400
      9 C14         18.2200    21.6300    -3.5950 c6         1 UWK      -0.069400
     10 C15         17.9250    21.0840    -2.2070 c6         1 UWK       0.195800
     11 C17         17.9110    20.0160     1.1570 ca         1 UWK      -0.033000
     12 C18         18.7880    20.0510     2.2290 ca         1 UWK      -0.083000
     13 N08         16.7800    21.8030    -1.6380 n3         1 UWK      -0.707500
     14 O07         14.7920    21.8910    -0.1190 o          1 UWK      -0.531000
     15 O11         16.1300    23.7070    -3.7390 os         1 UWK      -0.441000
     16 O16         15.7410    19.6770    -0.8230 o          1 UWK      -0.531000
     17 S06         15.9430    21.0600    -0.4280 sy         1 UWK       1.151600
     18 H1          20.3840    20.2420     4.2920 h4         1 UWK      -0.003800
     19 H4          17.8520    23.0020     3.6230 ha         1 UWK       0.129500
     20 H5          16.2880    22.9560     1.7290 ha         1 UWK       0.138500
     21 H7          16.1710    23.7150    -1.0160 h1         1 UWK       0.056200
     22 H8          17.4880    24.9040    -2.7470 h1         1 UWK       0.035700
     23 H9          14.2890    24.4190    -4.1740 h1         1 UWK       0.033700
     24 H10         14.4960    24.0080    -2.4690 h1         1 UWK       0.033700
     25 H11         15.2360    25.4820    -3.1210 h1         1 UWK       0.033700
     26 H12         19.3270    23.3820    -3.0070 hc         1 UWK       0.051200
     27 H13         18.5600    23.5330    -4.5760 hc         1 UWK       0.051200
     28 H14         17.4040    21.3620    -4.2690 hc         1 UWK       0.059700
     29 H15         19.1190    21.1380    -3.9720 hc         1 UWK       0.059700
     30 H16         17.6980    20.0220    -2.2680 h1         1 UWK       0.051200
     31 H17         18.8050    21.2050    -1.5600 h1         1 UWK       0.051200
     32 H18         17.9230    19.1750     0.4780 ha         1 UWK       0.138500
     33 H19         19.4860    19.2360     2.3790 ha         1 UWK       0.129500
     34 O1          19.7710    21.9870     5.0880 o          1 UWK      -0.501100
     35 H6          17.9040    23.4360    -0.8940 h1         1 UWK       0.056200
     36 C12         14.9960    24.4360    -3.3450 c3         1 UWK       0.139900
@<TRIPOS>BOND
     1     1     2 1   
     2     1    18 1   
     3     1    34 2   
     4     2     3 ar  
     5     2    12 ar  
     6     3     4 ar  
     7     3    19 1   
     8     4     5 ar  
     9     4    20 1   
    10     5    11 ar  
    11     5    17 1   
    12     6     7 1   
    13     6    13 1   
    14     6    21 1   
    15     6    35 1   
    16     7     8 1   
    17     7    15 1   
    18     7    22 1   
    19     8     9 1   
    20     8    26 1   
    21     8    27 1   
    22     9    10 1   
    23     9    28 1   
    24     9    29 1   
    25    10    13 1   
    26    10    30 1   
    27    10    31 1   
    28    11    12 ar  
    29    11    32 1   
    30    12    33 1   
    31    13    17 1   
    32    14    17 2   
    33    15    36 1   
    34    16    17 2   
    35    23    36 1   
    36    24    36 1   
    37    25    36 1   
@<TRIPOS>SUBSTRUCTURE
     1 UWK         1 TEMP              0 ****  ****    0 ROOT
