@<TRIPOS>MOLECULE
UWK
   36    37     1     0     0
SMALL
No Charge or Current Charge


@<TRIPOS>ATOM
      1 C01         19.9030    21.3320     4.1260 c          1 UWK       0.578500
      2 C02         18.8800    21.2250     3.0240 ca         1 UWK      -0.151600
      3 C03         17.8860    22.2120     2.8560 ca         1 UWK      -0.083000
      4 C04         16.9380    22.1010     1.8240 ca         1 UWK      -0.033000
      5 C05         16.9750    21.0000     0.9440 ca         1 UWK      -0.276500
      6 C09         16.8200    23.0950    -1.4610 c6         1 UWK       0.158800
      7 C10         17.3010    23.8350    -2.7530 c6         1 UWK       0.181300
      8 C13         18.5380    23.1070    -3.3290 c6         1 UWK      -0.069400
      9 C14         18.2390    21.6020    -3.5350 c6         1 UWK      -0.069400
     10 C15         17.7260    20.9450    -2.2290 c6         1 UWK       0.195800
     11 C17         17.9630    20.0080     1.1120 ca         1 UWK      -0.033000
     12 C18         18.9100    20.1220     2.1450 ca         1 UWK      -0.083000
     13 N08         16.5300    21.6480    -1.6930 n3         1 UWK      -0.707500
     14 O07         14.5750    21.6610    -0.0680 o          1 UWK      -0.531000
     15 O11         16.2760    23.9240    -3.7750 os         1 UWK      -0.441000
     16 O16         15.6250    19.4510    -0.7820 o          1 UWK      -0.531000
     17 S06         15.7620    20.8580    -0.3870 sy         1 UWK       1.151600
     18 H1          20.6460    20.5060     4.1800 h4         1 UWK      -0.003800
     19 H4          17.8440    23.0700     3.5250 ha         1 UWK       0.129500
     20 H5          16.1790    22.8740     1.7130 ha         1 UWK       0.138500
     21 H7          15.9370    23.6160    -1.0660 h1         1 UWK       0.056200
     22 H8          17.5950    24.8600    -2.4830 h1         1 UWK       0.035700
     23 H9          14.4350    24.7360    -4.3400 h1         1 UWK       0.033700
     24 H10         14.5010    24.1430    -2.6710 h1         1 UWK       0.033700
     25 H11         15.3160    25.6670    -3.1100 h1         1 UWK       0.033700
     26 H12         19.3860    23.2250    -2.6400 hc         1 UWK       0.051200
     27 H13         18.8410    23.5690    -4.2780 hc         1 UWK       0.051200
     28 H14         17.4860    21.4760    -4.3250 hc         1 UWK       0.059700
     29 H15         19.1430    21.0830    -3.8800 hc         1 UWK       0.059700
     30 H16         17.4950    19.8920    -2.4500 h1         1 UWK       0.051200
     31 H17         18.5380    20.9480    -1.4880 h1         1 UWK       0.051200
     32 H18         18.0040    19.1480     0.4450 ha         1 UWK       0.138500
     33 H19         19.6670    19.3490     2.2600 ha         1 UWK       0.129500
     34 O1          19.9400    22.2600     4.9280 o          1 UWK      -0.501100
     35 H6          17.6040    23.2030    -0.6970 h1         1 UWK       0.056200
     36 C12         15.0770    24.6530    -3.4540 c3         1 UWK       0.139900
@<TRIPOS>BOND
     1     1     2 1   
     2     1    18 1   
     3     1    34 2   
     4     2     3 ar  
     5     2    12 ar  
     6     3     4 ar  
     7     3    19 1   
     8     4     5 ar  
     9     4    20 1   
    10     5    11 ar  
    11     5    17 1   
    12     6     7 1   
    13     6    13 1   
    14     6    21 1   
    15     6    35 1   
    16     7     8 1   
    17     7    15 1   
    18     7    22 1   
    19     8     9 1   
    20     8    26 1   
    21     8    27 1   
    22     9    10 1   
    23     9    28 1   
    24     9    29 1   
    25    10    13 1   
    26    10    30 1   
    27    10    31 1   
    28    11    12 ar  
    29    11    32 1   
    30    12    33 1   
    31    13    17 1   
    32    14    17 2   
    33    15    36 1   
    34    16    17 2   
    35    23    36 1   
    36    24    36 1   
    37    25    36 1   
@<TRIPOS>SUBSTRUCTURE
     1 UWK         1 TEMP              0 ****  ****    0 ROOT
