@<TRIPOS>MOLECULE
UWN
   82    87     1     0     0
SMALL
abcg2


@<TRIPOS>ATOM
      1 N3          -0.1480     3.0600     0.6820 nu         1 UWN      -0.998000
      2 N4           4.0050    -0.1010     1.4790 n          1 UWN      -0.400800
      3 N2          -3.2120     0.7760    -0.3860 n          1 UWN      -0.402800
      4 N1          -6.1640    -2.2370    -0.6660 n3         1 UWN      -0.721600
      5 OAA          2.7270    -1.4990     2.7200 o          1 UWN      -0.593100
      6 OAB         -1.7820     1.9460    -1.6910 o          1 UWN      -0.592100
      7 CAE         -3.6010     3.8120     1.7600 ca         1 UWN      -0.082500
      8 CAF         -1.5670     4.9560     0.2650 ca         1 UWN      -0.150000
      9 CAG         -2.3910     3.1480     1.6190 ca         1 UWN      -0.150000
     10 CAH          0.6750    -1.0460     0.6640 ca         1 UWN      -0.112000
     11 CAI         -0.5070    -0.5770     0.1180 ca         1 UWN      -0.064000
     12 CAJ          1.2720     1.2160     1.2130 ca         1 UWN      -0.163000
     13 CAM         -7.3830    -4.1670    -0.2070 c5         1 UWN      -0.080900
     14 CAN         -8.1530    -3.3890    -1.2860 c5         1 UWN      -0.080900
     15 CAQ         -5.1270    -0.2000    -1.5500 c6         1 UWN      -0.093400
     16 CAR         -4.2690    -1.2280     0.5480 c6         1 UWN      -0.093400
     17 CAU         -6.5160    -3.1030     0.4490 c5         1 UWN       0.160800
     18 CAV         -7.4090    -2.0500    -1.4040 c5         1 UWN       0.160800
     19 CAX          5.2360    -0.4860     2.1480 c6         1 UWN       0.094500
     20 CAY         -4.3700     1.0750    -1.2070 c6         1 UWN       0.098000
     21 CAZ         -3.5590     0.0850     0.8420 c6         1 UWN       0.098000
     22 CBD         -1.3700     3.7040     0.8490 ca         1 UWN       0.315000
     23 CBE          1.5840    -0.1340     1.1900 ca         1 UWN      -0.092600
     24 CBF          0.0760     1.6980     0.6710 ca         1 UWN       0.358000
     25 CBG         -0.8220     0.7790     0.1040 ca         1 UWN      -0.179600
     26 CBI         -5.5160    -0.9920    -0.3020 c6         1 UWN       0.191500
     27 H1           0.6720     3.6450     0.7040 hn         1 UWN       0.495000
     28 H3          -4.3840     3.3590     2.3540 ha         1 UWN       0.111000
     29 H6          -0.7780     5.3990    -0.3300 ha         1 UWN       0.117000
     30 H9          -2.2350     2.2080     2.1310 ha         1 UWN       0.117000
     31 H10          0.8950    -2.1040     0.6560 ha         1 UWN       0.133000
     32 H11         -1.1940    -1.2820    -0.3350 ha         1 UWN       0.123000
     33 H12          1.9600     1.9230     1.6630 ha         1 UWN       0.120000
     34 H13         -8.0360    -4.6680     0.5070 hc         1 UWN       0.047200
     35 H14         -6.7500    -4.9310    -0.6620 hc         1 UWN       0.047200
     36 H15         -8.1710    -3.9290    -2.2330 hc         1 UWN       0.047200
     37 H16         -9.1910    -3.2240    -0.9970 hc         1 UWN       0.047200
     38 H17         -6.0100     0.0820    -2.1270 hc         1 UWN       0.055950
     39 H18         -4.5070    -0.8320    -2.1940 hc         1 UWN       0.055950
     40 H19         -3.5910    -1.9120     0.0270 hc         1 UWN       0.055950
     41 H20         -4.5300    -1.6900     1.5020 hc         1 UWN       0.055950
     42 H21         -5.6300    -3.5220     0.9270 h1         1 UWN       0.034950
     43 H22         -7.0870    -2.5640     1.2260 h1         1 UWN       0.034950
     44 H23         -8.0140    -1.2420    -0.9600 h1         1 UWN       0.034950
     45 H24         -7.2170    -1.7720    -2.4410 h1         1 UWN       0.034950
     46 H25          5.7710     0.4310     2.4140 h1         1 UWN       0.057450
     47 H26          5.0010    -1.0040     3.0730 h1         1 UWN       0.057450
     48 H28         -5.0230     1.7630    -0.6550 h1         1 UWN       0.054450
     49 H29         -4.0520     1.5860    -2.1110 h1         1 UWN       0.054450
     50 H30         -2.6750    -0.0840     1.4510 h1         1 UWN       0.054450
     51 H31         -4.2260     0.7350     1.4220 h1         1 UWN       0.054450
     52 H32         -6.2070    -0.3610     0.2960 h1         1 UWN       0.015700
     53 C1          -3.8000     5.0530     1.1700 ca         1 UWN      -0.137000
     54 C2          -2.7680     5.6250     0.4360 ca         1 UWN      -0.082500
     55 C3           4.2410     0.6110     0.2330 c6         1 UWN       0.094500
     56 C4           5.0940    -0.2230    -0.7170 c6         1 UWN      -0.100900
     57 C5           6.1100    -1.3510     1.2520 c6         1 UWN      -0.100900
     58 C6           6.4120    -0.6500    -0.0730 c6         1 UWN       0.189500
     59 H2          -4.7430     5.5710     1.2870 ha         1 UWN       0.113000
     60 H4          -2.9040     6.5970    -0.0220 ha         1 UWN       0.111000
     61 H5           3.3010     0.8620    -0.2480 h1         1 UWN       0.057450
     62 H7           4.7470     1.5540     0.4610 h1         1 UWN       0.057450
     63 H8           4.5350    -1.1130    -1.0240 hc         1 UWN       0.057950
     64 H27          5.2690     0.3760    -1.6120 hc         1 UWN       0.057950
     65 H33          7.0300    -1.5790     1.7930 hc         1 UWN       0.057950
     66 H34          5.6090    -2.3030     1.0510 hc         1 UWN       0.057950
     67 C8           8.4780    -1.8920    -0.4180 c5         1 UWN       0.157800
     68 C9           9.2230    -2.4860    -1.6140 c5         1 UWN      -0.079400
     69 C10          8.5530    -1.8370    -2.8410 c5         1 UWN      -0.079400
     70 C7           7.4960    -0.9070    -2.2460 c5         1 UWN       0.157800
     71 N5           7.1820    -1.5050    -0.9570 n3         1 UWN      -0.714600
     72 H35          6.9880     0.2690     0.1590 h1         1 UWN       0.014700
     73 H36          8.3770    -2.6030     0.4030 h1         1 UWN       0.034700
     74 H37          9.0230    -1.0150    -0.0260 h1         1 UWN       0.034700
     75 H38         10.2900    -2.2730    -1.5580 hc         1 UWN       0.046950
     76 H39          9.1130    -3.5700    -1.6400 hc         1 UWN       0.046950
     77 H40          9.2580    -1.2880    -3.4650 hc         1 UWN       0.046950
     78 H41          8.0860    -2.5940    -3.4720 hc         1 UWN       0.046950
     79 H42          7.9050     0.1120    -2.1270 h1         1 UWN       0.034700
     80 H43          6.6120    -0.8280    -2.8800 h1         1 UWN       0.034700
     81 CBB          2.8290    -0.6440     1.8500 c          1 UWN       0.614700
     82 CBC         -1.9920     1.2350    -0.7170 c          1 UWN       0.627700
@<TRIPOS>BOND
     1     1    22 1   
     2     1    24 1   
     3     1    27 1   
     4     2    19 1   
     5     2    55 1   
     6     2    81 1   
     7     3    20 1   
     8     3    21 1   
     9     3    82 1   
    10     4    17 1   
    11     4    18 1   
    12     4    26 1   
    13     5    81 2   
    14     6    82 2   
    15     7     9 ar  
    16     7    28 1   
    17     7    53 ar  
    18     8    22 ar  
    19     8    29 1   
    20     8    54 ar  
    21     9    22 ar  
    22     9    30 1   
    23    10    11 ar  
    24    10    23 ar  
    25    10    31 1   
    26    11    25 ar  
    27    11    32 1   
    28    12    23 ar  
    29    12    24 ar  
    30    12    33 1   
    31    13    14 1   
    32    13    17 1   
    33    13    34 1   
    34    13    35 1   
    35    14    18 1   
    36    14    36 1   
    37    14    37 1   
    38    15    20 1   
    39    15    26 1   
    40    15    38 1   
    41    15    39 1   
    42    16    21 1   
    43    16    26 1   
    44    16    40 1   
    45    16    41 1   
    46    17    42 1   
    47    17    43 1   
    48    18    44 1   
    49    18    45 1   
    50    19    46 1   
    51    19    47 1   
    52    19    57 1   
    53    20    48 1   
    54    20    49 1   
    55    21    50 1   
    56    21    51 1   
    57    23    81 1   
    58    24    25 ar  
    59    25    82 1   
    60    26    52 1   
    61    53    54 ar  
    62    53    59 1   
    63    54    60 1   
    64    55    56 1   
    65    55    61 1   
    66    55    62 1   
    67    56    58 1   
    68    56    63 1   
    69    56    64 1   
    70    57    58 1   
    71    57    65 1   
    72    57    66 1   
    73    58    71 1   
    74    58    72 1   
    75    67    68 1   
    76    67    71 1   
    77    67    73 1   
    78    67    74 1   
    79    68    69 1   
    80    68    75 1   
    81    68    76 1   
    82    69    70 1   
    83    69    77 1   
    84    69    78 1   
    85    70    71 1   
    86    70    79 1   
    87    70    80 1   
@<TRIPOS>SUBSTRUCTURE
     1 UWN         1 TEMP              0 ****  ****    0 ROOT
