@<TRIPOS>MOLECULE
UWN
   82    87     1     0     0
SMALL
No Charge or Current Charge


@<TRIPOS>ATOM
      1 N3          -0.1050     2.6870     0.3350 nu         1 UWN      -0.998000
      2 N4           4.0530    -0.3540     1.2540 n          1 UWN      -0.400800
      3 N2          -3.2670     0.2020    -0.8990 n          1 UWN      -0.402800
      4 N1          -6.9750    -2.0980    -0.3540 n3         1 UWN      -0.721600
      5 OAA          2.8770    -2.2570     1.7780 o          1 UWN      -0.593100
      6 OAB         -2.0330     1.8620    -1.8980 o          1 UWN      -0.592100
      7 CAE         -3.3660     3.6090     1.8660 ca         1 UWN      -0.082500
      8 CAF         -1.3030     4.7890     0.3670 ca         1 UWN      -0.150000
      9 CAG         -2.2470     2.8500     1.4830 ca         1 UWN      -0.150000
     10 CAH          0.6460    -1.4480     0.0990 ca         1 UWN      -0.112000
     11 CAI         -0.5470    -0.9430    -0.4370 ca         1 UWN      -0.064000
     12 CAJ          1.3120     0.8010     0.7050 ca         1 UWN      -0.163000
     13 CAM         -8.5330    -3.6290     0.5400 c5         1 UWN      -0.080900
     14 CAN         -9.0860    -3.0540    -0.7990 c5         1 UWN      -0.080900
     15 CAQ         -5.5560    -0.5380    -1.7300 c6         1 UWN      -0.093400
     16 CAR         -4.6630    -1.4650     0.4180 c6         1 UWN      -0.093400
     17 CAU         -7.4370    -2.6150     0.9570 c5         1 UWN       0.160800
     18 CAV         -8.2570    -1.7620    -1.0190 c5         1 UWN       0.160800
     19 CAX          5.2320    -0.7210     2.0800 c6         1 UWN       0.094500
     20 CAY         -4.4710     0.5620    -1.6980 c6         1 UWN       0.098000
     21 CAZ         -3.5980    -0.3490     0.4470 c6         1 UWN       0.098000
     22 CBD         -1.2200     3.4320     0.7190 ca         1 UWN       0.315000
     23 CBE          1.6070    -0.5800     0.6540 ca         1 UWN      -0.092600
     24 CBF          0.1100     1.3150     0.1920 ca         1 UWN       0.358000
     25 CBG         -0.8280     0.4410    -0.4040 ca         1 UWN      -0.179600
     26 CBI         -5.9530    -1.0090    -0.3090 c6         1 UWN       0.191500
     27 H1           0.7350     3.2490     0.1990 hn         1 UWN       0.495000
     28 H3          -4.1590     3.1530     2.4540 ha         1 UWN       0.111000
     29 H6          -0.5090     5.2500    -0.2130 ha         1 UWN       0.117000
     30 H9          -2.1700     1.8130     1.7940 ha         1 UWN       0.117000
     31 H10          0.8370    -2.5190     0.0600 ha         1 UWN       0.133000
     32 H11         -1.2490    -1.6330    -0.9040 ha         1 UWN       0.123000
     33 H12          2.0080     1.4830     1.1870 ha         1 UWN       0.120000
     34 H13         -9.3090    -3.7250     1.3080 hc         1 UWN       0.047200
     35 H14         -8.1050    -4.6270     0.3870 hc         1 UWN       0.047200
     36 H15         -8.9290    -3.7630    -1.6200 hc         1 UWN       0.047200
     37 H16        -10.1600    -2.8440    -0.7540 hc         1 UWN       0.047200
     38 H17         -6.4270    -0.1420    -2.2660 hc         1 UWN       0.055950
     39 H18         -5.1890    -1.3940    -2.3130 hc         1 UWN       0.055950
     40 H19         -4.2500    -2.3540    -0.0790 hc         1 UWN       0.055950
     41 H20         -4.8810    -1.7550     1.4530 hc         1 UWN       0.055950
     42 H21         -6.6420    -3.1070     1.5320 h1         1 UWN       0.034950
     43 H22         -7.8580    -1.8090     1.5760 h1         1 UWN       0.034950
     44 H23         -8.7390    -0.8970    -0.5400 h1         1 UWN       0.034950
     45 H24         -8.1450    -1.5430    -2.0890 h1         1 UWN       0.034950
     46 H25          5.6140     0.1870     2.5690 h1         1 UWN       0.057450
     47 H26          4.9420    -1.4150     2.8820 h1         1 UWN       0.057450
     48 H28         -4.9040     1.4830    -1.2810 h1         1 UWN       0.054450
     49 H29         -4.1740     0.7830    -2.7340 h1         1 UWN       0.054450
     50 H30         -2.7000    -0.7350     0.9470 h1         1 UWN       0.054450
     51 H31         -3.9760     0.4740     1.0700 h1         1 UWN       0.054450
     52 H32         -6.3680    -0.1470     0.2360 h1         1 UWN       0.015700
     53 C1          -3.4530     4.9610     1.4950 ca         1 UWN      -0.137000
     54 C2          -2.4200     5.5540     0.7490 ca         1 UWN      -0.082500
     55 C3           4.4020     0.5590     0.1330 c6         1 UWN       0.094500
     56 C4           5.5240    -0.0280    -0.7560 c6         1 UWN      -0.100900
     57 C5           6.3580    -1.3500     1.2300 c6         1 UWN      -0.100900
     58 C6           6.7850    -0.4090     0.0690 c6         1 UWN       0.189500
     59 H2          -4.3180     5.5520     1.7910 ha         1 UWN       0.113000
     60 H4          -2.4840     6.6030     0.4670 ha         1 UWN       0.111000
     61 H5           3.5330     0.7550    -0.5070 h1         1 UWN       0.057450
     62 H7           4.7290     1.5240     0.5470 h1         1 UWN       0.057450
     63 H8           5.1450    -0.9150    -1.2820 hc         1 UWN       0.057950
     64 H27          5.7740     0.7120    -1.5260 hc         1 UWN       0.057950
     65 H33          7.2080    -1.5640     1.8890 hc         1 UWN       0.057950
     66 H34          6.0180    -2.3130     0.8250 hc         1 UWN       0.057950
     67 C8           9.0920    -1.4230    -0.1090 c5         1 UWN       0.157800
     68 C9           9.9560    -1.9380    -1.2890 c5         1 UWN      -0.079400
     69 C10          9.4420    -1.1230    -2.5140 c5         1 UWN      -0.079400
     70 C7           8.3320    -0.2180    -1.9180 c5         1 UWN       0.157800
     71 N5           7.8320    -1.0390    -0.7900 n3         1 UWN      -0.714600
     72 H35          7.1910     0.5120     0.5120 h1         1 UWN       0.014700
     73 H36          8.9520    -2.2050     0.6490 h1         1 UWN       0.034700
     74 H37          9.5610    -0.5550     0.3770 h1         1 UWN       0.034700
     75 H38         11.0260    -1.7860    -1.1030 hc         1 UWN       0.046950
     76 H39          9.8040    -3.0120    -1.4460 hc         1 UWN       0.046950
     77 H40         10.2330    -0.5330    -2.9890 hc         1 UWN       0.046950
     78 H41          9.0320    -1.7910    -3.2800 hc         1 UWN       0.046950
     79 H42          8.7470     0.7360    -1.5620 h1         1 UWN       0.034700
     80 H43          7.5600     0.0040    -2.6670 h1         1 UWN       0.034700
     81 CBB          2.8840    -1.1540     1.2430 c          1 UWN       0.614700
     82 CBC         -2.0760     0.9470    -1.0820 c          1 UWN       0.627700
@<TRIPOS>BOND
     1     1    22 1   
     2     1    24 1   
     3     1    27 1   
     4     2    19 1   
     5     2    55 1   
     6     2    81 1   
     7     3    20 1   
     8     3    21 1   
     9     3    82 1   
    10     4    17 1   
    11     4    18 1   
    12     4    26 1   
    13     5    81 2   
    14     6    82 2   
    15     7     9 ar  
    16     7    28 1   
    17     7    53 ar  
    18     8    22 ar  
    19     8    29 1   
    20     8    54 ar  
    21     9    22 ar  
    22     9    30 1   
    23    10    11 ar  
    24    10    23 ar  
    25    10    31 1   
    26    11    25 ar  
    27    11    32 1   
    28    12    23 ar  
    29    12    24 ar  
    30    12    33 1   
    31    13    14 1   
    32    13    17 1   
    33    13    34 1   
    34    13    35 1   
    35    14    18 1   
    36    14    36 1   
    37    14    37 1   
    38    15    20 1   
    39    15    26 1   
    40    15    38 1   
    41    15    39 1   
    42    16    21 1   
    43    16    26 1   
    44    16    40 1   
    45    16    41 1   
    46    17    42 1   
    47    17    43 1   
    48    18    44 1   
    49    18    45 1   
    50    19    46 1   
    51    19    47 1   
    52    19    57 1   
    53    20    48 1   
    54    20    49 1   
    55    21    50 1   
    56    21    51 1   
    57    23    81 1   
    58    24    25 ar  
    59    25    82 1   
    60    26    52 1   
    61    53    54 ar  
    62    53    59 1   
    63    54    60 1   
    64    55    56 1   
    65    55    61 1   
    66    55    62 1   
    67    56    58 1   
    68    56    63 1   
    69    56    64 1   
    70    57    58 1   
    71    57    65 1   
    72    57    66 1   
    73    58    71 1   
    74    58    72 1   
    75    67    68 1   
    76    67    71 1   
    77    67    73 1   
    78    67    74 1   
    79    68    69 1   
    80    68    75 1   
    81    68    76 1   
    82    69    70 1   
    83    69    77 1   
    84    69    78 1   
    85    70    71 1   
    86    70    79 1   
    87    70    80 1   
@<TRIPOS>SUBSTRUCTURE
     1 UWN         1 TEMP              0 ****  ****    0 ROOT
