@<TRIPOS>MOLECULE
UWO
   54    57     1     0     0
SMALL
abcg2


@<TRIPOS>ATOM
      1 C13        -14.9760    -3.0120    -2.8800 ca         1 UWO      -0.102000
      2 C17        -10.8160    -4.3480    -1.9790 ce         1 UWO      -0.322400
      3 C20        -10.5430    -6.9900    -3.0780 c6         1 UWO      -0.063400
      4 C21        -11.9020    -6.5330    -2.5720 c6         1 UWO      -0.063200
      5 C24        -10.7430    -1.9310    -2.8340 ca         1 UWO      -0.050300
      6 C26        -10.7950    -1.4570    -5.2010 ca         1 UWO      -0.062000
      7 C28        -10.5220     0.8590    -6.0810 c3         1 UWO       0.343300
      8 C02        -11.8110    -2.5620     0.5680 c          1 UWO       0.608100
      9 C03        -13.0330    -2.3190     1.4180 c3         1 UWO      -0.171100
     10 C05        -13.1890    -2.2710    -1.4470 ca         1 UWO      -0.039000
     11 C06        -13.8020    -1.0240    -1.3530 ca         1 UWO      -0.105000
     12 C07        -15.0050    -0.7730    -1.9850 ca         1 UWO      -0.068000
     13 C08        -15.6030    -1.7790    -2.7460 ca         1 UWO      -0.113600
     14 C09        -16.9030    -1.4880    -3.4100 c          1 UWO       0.602700
     15 C11        -18.6770    -2.3650    -4.7060 c3         1 UWO       0.154900
     16 C14        -13.7600    -3.2700    -2.2440 ca         1 UWO       0.275000
     17 C16        -11.9470    -5.0490    -2.3030 c2         1 UWO       0.214800
     18 C18         -9.5280    -5.0120    -1.8920 c          1 UWO       0.589300
     19 C19         -9.4540    -6.5030    -2.1350 c6         1 UWO      -0.177400
     20 C23        -10.8140    -2.8800    -1.6520 c3         1 UWO       0.208200
     21 C25        -10.8730    -2.3620    -4.1500 ca         1 UWO      -0.100500
     22 C27        -10.5850    -0.1070    -4.9370 ca         1 UWO      -0.189300
     23 C32        -10.4600     0.3380    -3.6230 ca         1 UWO      -0.062000
     24 C33        -10.5350    -0.5740    -2.5840 ca         1 UWO      -0.100500
     25 F29        -10.0360     2.0650    -5.7240 f          1 UWO      -0.114000
     26 F30         -9.7410     0.4060    -7.0900 f          1 UWO      -0.114000
     27 F31        -11.7450     1.0840    -6.6290 f          1 UWO      -0.114000
     28 N04        -11.9630    -2.5220    -0.7920 n          1 UWO      -0.249400
     29 N15        -13.2110    -4.5470    -2.4100 nu         1 UWO      -0.827000
     30 O01        -10.7160    -2.7950     1.0750 o          1 UWO      -0.579100
     31 O10        -17.4130    -2.5520    -4.0380 os         1 UWO      -0.450100
     32 O12        -17.4450    -0.4020    -3.3890 o          1 UWO      -0.478000
     33 O22         -8.4990    -4.3870    -1.6120 o          1 UWO      -0.539100
     34 H1         -15.4320    -3.7880    -3.4780 ha         1 UWO       0.133000
     35 H3         -10.3720    -6.5850    -4.0790 hc         1 UWO       0.053700
     36 H4         -10.5250    -8.0780    -3.1580 hc         1 UWO       0.053700
     37 H5         -12.6860    -6.7930    -3.2850 hc         1 UWO       0.059700
     38 H6         -12.1450    -7.0480    -1.6350 hc         1 UWO       0.059700
     39 H7         -10.8940    -1.8050    -6.2210 ha         1 UWO       0.129500
     40 H8         -12.8480    -2.7470     2.4010 hc         1 UWO       0.064700
     41 H9         -13.1970    -1.2460     1.5340 hc         1 UWO       0.064700
     42 H10        -13.9340    -2.7510     0.9860 hc         1 UWO       0.064700
     43 H11        -13.3180    -0.2550    -0.7670 ha         1 UWO       0.132000
     44 H12        -15.4830     0.1920    -1.8990 ha         1 UWO       0.146000
     45 H13        -18.9110    -3.3260    -5.1540 h1         1 UWO       0.052367
     46 H14        -19.4430    -2.0810    -3.9870 h1         1 UWO       0.052367
     47 H15        -18.5880    -1.5970    -5.4730 h1         1 UWO       0.052367
     48 H17         -9.5600    -6.9940    -1.1590 hc         1 UWO       0.074700
     49 H18         -8.4550    -6.7360    -2.5050 hc         1 UWO       0.074700
     50 H19         -9.9290    -2.7010    -1.0470 h1         1 UWO       0.124700
     51 H20        -11.0280    -3.4110    -4.3620 ha         1 UWO       0.123500
     52 H21        -10.2950     1.3860    -3.4150 ha         1 UWO       0.129500
     53 H22        -10.4350    -0.2290    -1.5620 ha         1 UWO       0.123500
     54 H23        -13.8760    -5.2070    -2.7880 hn         1 UWO       0.488000
@<TRIPOS>BOND
     1     1    13 ar  
     2     1    16 ar  
     3     1    34 1   
     4     2    17 2   
     5     2    18 1   
     6     2    20 1   
     7     3     4 1   
     8     3    19 1   
     9     3    35 1   
    10     3    36 1   
    11     4    17 1   
    12     4    37 1   
    13     4    38 1   
    14     5    20 1   
    15     5    21 ar  
    16     5    24 ar  
    17     6    21 ar  
    18     6    22 ar  
    19     6    39 1   
    20     7    22 1   
    21     7    25 1   
    22     7    26 1   
    23     7    27 1   
    24     8     9 1   
    25     8    28 1   
    26     8    30 2   
    27     9    40 1   
    28     9    41 1   
    29     9    42 1   
    30    10    11 ar  
    31    10    16 ar  
    32    10    28 1   
    33    11    12 ar  
    34    11    43 1   
    35    12    13 ar  
    36    12    44 1   
    37    13    14 1   
    38    14    31 1   
    39    14    32 2   
    40    15    31 1   
    41    15    45 1   
    42    15    46 1   
    43    15    47 1   
    44    16    29 1   
    45    17    29 1   
    46    18    19 1   
    47    18    33 2   
    48    19    48 1   
    49    19    49 1   
    50    20    28 1   
    51    20    50 1   
    52    21    51 1   
    53    22    23 ar  
    54    23    24 ar  
    55    23    52 1   
    56    24    53 1   
    57    29    54 1   
@<TRIPOS>SUBSTRUCTURE
     1 UWO         1 TEMP              0 ****  ****    0 ROOT
