@<TRIPOS>MOLECULE
UWO
   54    57     1     0     0
SMALL
No Charge or Current Charge


@<TRIPOS>ATOM
      1 C13        -15.0270    -3.0190    -2.9180 ca         1 UWO      -0.102000
      2 C17        -10.7990    -4.2880    -2.2150 ce         1 UWO      -0.322400
      3 C20        -10.4020    -7.2040    -2.5500 c6         1 UWO      -0.063400
      4 C21        -11.8100    -6.5640    -2.7160 c6         1 UWO      -0.063200
      5 C24        -10.6710    -1.8230    -2.9430 ca         1 UWO      -0.050300
      6 C26        -11.0210    -1.1850    -5.2780 ca         1 UWO      -0.062000
      7 C28        -10.3990     1.1360    -6.1530 c3         1 UWO       0.343300
      8 C02        -11.8010    -2.7990     0.4860 c          1 UWO       0.608100
      9 C03        -13.0500    -2.6800     1.3660 c3         1 UWO      -0.171100
     10 C05        -13.1540    -2.2650    -1.5640 ca         1 UWO      -0.039000
     11 C06        -13.8580    -1.0820    -1.2720 ca         1 UWO      -0.105000
     12 C07        -15.1160    -0.8410    -1.8460 ca         1 UWO      -0.068000
     13 C08        -15.7120    -1.8020    -2.6880 ca         1 UWO      -0.113600
     14 C09        -17.0690    -1.5280    -3.3010 c          1 UWO       0.602700
     15 C11        -18.8190    -2.3840    -4.7280 c3         1 UWO       0.154900
     16 C14        -13.7640    -3.2650    -2.3510 ca         1 UWO       0.275000
     17 C16        -11.8940    -5.0480    -2.4830 c2         1 UWO       0.214800
     18 C18         -9.4720    -4.9550    -2.1670 c          1 UWO       0.589300
     19 C19         -9.5020    -6.3710    -1.6140 c6         1 UWO      -0.177400
     20 C23        -10.7740    -2.8260    -1.7850 c3         1 UWO       0.208200
     21 C25        -11.1110    -2.1340    -4.2460 ca         1 UWO      -0.100500
     22 C27        -10.4840     0.0960    -5.0300 ca         1 UWO      -0.189300
     23 C32        -10.0560     0.4120    -3.7240 ca         1 UWO      -0.062000
     24 C33        -10.1470    -0.5390    -2.6930 ca         1 UWO      -0.100500
     25 F29         -9.3730     2.0010    -5.9780 f          1 UWO      -0.114000
     26 F30        -10.2210     0.5690    -7.3680 f          1 UWO      -0.114000
     27 F31        -11.5290     1.8750    -6.2250 f          1 UWO      -0.114000
     28 N04        -11.9180    -2.5400    -0.9020 n          1 UWO      -0.249400
     29 N15        -13.1930    -4.5360    -2.5390 nu         1 UWO      -0.827000
     30 O01        -10.7330    -3.1220     0.9950 o          1 UWO      -0.579100
     31 O10        -17.5340    -2.5460    -4.0960 os         1 UWO      -0.450100
     32 O12        -17.6900    -0.4920    -3.1020 o          1 UWO      -0.478000
     33 O22         -8.4200    -4.3800    -2.4100 o          1 UWO      -0.539100
     34 H1         -15.4820    -3.7900    -3.5330 ha         1 UWO       0.133000
     35 H3          -9.9200    -7.2720    -3.5360 hc         1 UWO       0.053700
     36 H4         -10.4930    -8.2350    -2.1820 hc         1 UWO       0.053700
     37 H5         -12.2030    -6.8080    -3.7120 hc         1 UWO       0.059700
     38 H6         -12.4890    -7.0510    -2.0020 hc         1 UWO       0.059700
     39 H7         -11.3760    -1.4510    -6.2720 ha         1 UWO       0.129500
     40 H8         -12.8780    -3.0490     2.3830 hc         1 UWO       0.064700
     41 H9         -13.3690    -1.6330     1.3890 hc         1 UWO       0.064700
     42 H10        -13.8940    -3.1860     0.8840 hc         1 UWO       0.064700
     43 H11        -13.4130    -0.3280    -0.6260 ha         1 UWO       0.132000
     44 H12        -15.6270     0.0960    -1.6320 ha         1 UWO       0.146000
     45 H13        -19.0630    -3.2680    -5.3290 h1         1 UWO       0.052367
     46 H14        -19.6100    -2.2530    -3.9790 h1         1 UWO       0.052367
     47 H15        -18.8210    -1.5100    -5.3920 h1         1 UWO       0.052367
     48 H17        -10.0100    -6.3430    -0.6410 hc         1 UWO       0.074700
     49 H18         -8.4890    -6.7800    -1.5070 hc         1 UWO       0.074700
     50 H19         -9.8600    -2.6690    -1.1950 h1         1 UWO       0.124700
     51 H20        -11.5350    -3.1090    -4.4690 ha         1 UWO       0.123500
     52 H21         -9.6540     1.3980    -3.4980 ha         1 UWO       0.129500
     53 H22         -9.8150    -0.2730    -1.6920 ha         1 UWO       0.123500
     54 H23        -13.8720    -5.2140    -2.8870 hn         1 UWO       0.488000
@<TRIPOS>BOND
     1     1    13 ar  
     2     1    16 ar  
     3     1    34 1   
     4     2    17 2   
     5     2    18 1   
     6     2    20 1   
     7     3     4 1   
     8     3    19 1   
     9     3    35 1   
    10     3    36 1   
    11     4    17 1   
    12     4    37 1   
    13     4    38 1   
    14     5    20 1   
    15     5    21 ar  
    16     5    24 ar  
    17     6    21 ar  
    18     6    22 ar  
    19     6    39 1   
    20     7    22 1   
    21     7    25 1   
    22     7    26 1   
    23     7    27 1   
    24     8     9 1   
    25     8    28 1   
    26     8    30 2   
    27     9    40 1   
    28     9    41 1   
    29     9    42 1   
    30    10    11 ar  
    31    10    16 ar  
    32    10    28 1   
    33    11    12 ar  
    34    11    43 1   
    35    12    13 ar  
    36    12    44 1   
    37    13    14 1   
    38    14    31 1   
    39    14    32 2   
    40    15    31 1   
    41    15    45 1   
    42    15    46 1   
    43    15    47 1   
    44    16    29 1   
    45    17    29 1   
    46    18    19 1   
    47    18    33 2   
    48    19    48 1   
    49    19    49 1   
    50    20    28 1   
    51    20    50 1   
    52    21    51 1   
    53    22    23 ar  
    54    23    24 ar  
    55    23    52 1   
    56    24    53 1   
    57    29    54 1   
@<TRIPOS>SUBSTRUCTURE
     1 UWO         1 TEMP              0 ****  ****    0 ROOT
