@<TRIPOS>MOLECULE
UWP
   50    54     1     0     0
SMALL
No Charge or Current Charge


@<TRIPOS>ATOM
      1 N3          -3.1850     0.2460    11.4330 na         1 UWP       0.351400
      2 C4          -5.8740    -3.7710    10.8230 cc         1 UWP       0.285900
      3 N2          -6.0060    -4.7570     9.9570 nd         1 UWP      -0.529800
      4 C7          -3.8270     0.5330    12.6090 cc         1 UWP      -0.156000
      5 C6          -3.5110    -0.8690    10.6950 cd         1 UWP      -0.155000
      6 C9          -2.2760     2.0400    12.0920 cd         1 UWP       0.368500
      7 C13         -5.4750     0.8890    15.2570 cd         1 UWP      -0.110000
      8 C8          -3.2490     1.6970    13.0520 cd         1 UWP      -0.370600
      9 N5          -5.2180    -1.4520    12.3960 nc         1 UWP      -0.677000
     10 C18         -9.9230     4.2810    16.2630 c3         1 UWP       0.307000
     11 C16         -6.4210     2.8930    17.4810 cy         1 UWP       0.150800
     12 C19         -6.1340     0.5530    18.6810 c3         1 UWP      -0.015300
     13 N1          -5.0540    -4.4440     8.9940 na         1 UWP       0.136800
     14 C2          -4.3500    -3.2700     9.2840 cd         1 UWP      -0.153000
     15 C3          -4.8850    -2.8420    10.4670 cc         1 UWP      -0.264500
     16 C5          -4.5200    -1.6690    11.2160 cc         1 UWP       0.422500
     17 N4          -2.2170     1.1720    11.0970 nc         1 UWP      -0.577100
     18 C10         -4.8620    -0.3270    13.1060 cc         1 UWP       0.510500
     19 C11         -5.5940    -0.1130    14.3340 cc         1 UWP      -0.277500
     20 C12         -6.6080    -0.9600    14.8060 cc         1 UWP       0.300900
     21 N6          -7.1350    -0.5780    15.9500 nd         1 UWP      -0.539800
     22 N7          -6.4350     0.5900    16.2350 na         1 UWP       0.137800
     23 C14         -6.7110     1.3370    17.4740 cy         1 UWP       0.083000
     24 C15         -8.2000     1.8310    17.6470 cy         1 UWP       0.150800
     25 N8          -7.7720     3.0330    16.8710 nq         1 UWP      -0.701600
     26 C17         -8.5110     4.3150    16.9130 c3         1 UWP       0.093800
     27 F1         -10.7650     3.4760    16.9530 f          1 UWP      -0.112000
     28 F2         -10.4640     5.5200    16.2430 f          1 UWP      -0.112000
     29 F3          -9.8680     3.8330    14.9860 f          1 UWP      -0.112000
     30 N9          -3.5040     0.4700    18.6040 n1         1 UWP      -0.436000
     31 H5          -6.5100    -3.7600    11.6990 h4         1 UWP       0.053100
     32 H6          -2.9670    -1.0350     9.7790 h4         1 UWP       0.163000
     33 H8          -1.6120     2.8960    12.0920 h4         1 UWP       0.046800
     34 H10         -4.8340     1.7530    15.3320 h4         1 UWP       0.161000
     35 H7          -3.4550     2.2780    13.9390 ha         1 UWP       0.212000
     36 H14         -6.3230     3.3190    18.4880 h1         1 UWP       0.072700
     37 H13         -5.5760     3.2200    16.8640 h1         1 UWP       0.072700
     38 H18         -6.4290     1.0260    19.6240 hc         1 UWP       0.092200
     39 H17         -6.5300    -0.4680    18.7080 hc         1 UWP       0.092200
     40 H3          -4.5750    -6.3120     8.1450 h1         1 UWP       0.057367
     41 H1          -5.7970    -5.3600     7.2480 h1         1 UWP       0.057367
     42 H2          -4.0720    -4.8930     7.1810 h1         1 UWP       0.057367
     43 H4          -3.5690    -2.8740     8.6440 h4         1 UWP       0.153000
     44 H9          -6.9830    -1.8650    14.3450 h4         1 UWP       0.056100
     45 H12         -8.9570     1.1960    17.1720 h1         1 UWP       0.072700
     46 H11         -8.4850     2.0300    18.6890 h1         1 UWP       0.072700
     47 H16         -8.6130     4.6370    17.9580 h1         1 UWP       0.070700
     48 H15         -7.9150     5.0770    16.3920 h1         1 UWP       0.070700
     49 C1          -4.8620    -5.3060     7.8190 c3         1 UWP       0.072900
     50 C20         -4.6670     0.4900    18.6440 c1         1 UWP       0.288900
@<TRIPOS>BOND
     1     1     4 1   
     2     1     5 1   
     3     1    17 1   
     4     2     3 2   
     5     2    15 1   
     6     2    31 1   
     7     3    13 1   
     8     4     8 2   
     9     4    18 1   
    10     5    16 2   
    11     5    32 1   
    12     6     8 1   
    13     6    17 2   
    14     6    33 1   
    15     7    19 2   
    16     7    22 1   
    17     7    34 1   
    18     8    35 1   
    19     9    16 1   
    20     9    18 2   
    21    10    26 1   
    22    10    27 1   
    23    10    28 1   
    24    10    29 1   
    25    11    23 1   
    26    11    25 1   
    27    11    36 1   
    28    11    37 1   
    29    12    23 1   
    30    12    38 1   
    31    12    39 1   
    32    12    50 1   
    33    13    14 1   
    34    13    49 1   
    35    14    15 2   
    36    14    43 1   
    37    15    16 1   
    38    18    19 1   
    39    19    20 1   
    40    20    21 2   
    41    20    44 1   
    42    21    22 1   
    43    22    23 1   
    44    23    24 1   
    45    24    25 1   
    46    24    45 1   
    47    24    46 1   
    48    25    26 1   
    49    26    47 1   
    50    26    48 1   
    51    30    50 3   
    52    40    49 1   
    53    41    49 1   
    54    42    49 1   
@<TRIPOS>SUBSTRUCTURE
     1 UWP         1 TEMP              0 ****  ****    0 ROOT
