@<TRIPOS>MOLECULE
UWP
   50    54     1     0     0
SMALL
abcg2


@<TRIPOS>ATOM
      1 N3          -3.3520     0.3800    11.3090 na         1 UWP       0.351400
      2 C4          -5.5190    -3.9960    11.0480 cc         1 UWP       0.285900
      3 N2          -5.5510    -5.0310    10.2310 nd         1 UWP      -0.529800
      4 C7          -4.0600     0.7080    12.4400 cc         1 UWP      -0.156000
      5 C6          -3.5120    -0.8060    10.6640 cd         1 UWP      -0.155000
      6 C9          -2.7160     2.3210    11.7980 cd         1 UWP       0.368500
      7 C13         -5.6130     0.8790    15.1290 cd         1 UWP      -0.110000
      8 C8          -3.6530     1.9950    12.7730 cd         1 UWP      -0.370600
      9 N5          -5.1290    -1.4100    12.3000 nc         1 UWP      -0.677000
     10 C18         -9.5310     4.7800    16.7940 c3         1 UWP       0.307000
     11 C16         -6.3930     2.7650    17.3250 cy         1 UWP       0.150800
     12 C19         -6.3690     0.3830    18.4270 c3         1 UWP      -0.015300
     13 N1          -4.7660    -4.7010     9.2100 na         1 UWP       0.136800
     14 C2          -4.2280    -3.4810     9.3480 cd         1 UWP      -0.153000
     15 C3          -4.6920    -2.9720    10.5470 cc         1 UWP      -0.264500
     16 C5          -4.4220    -1.6850    11.1710 cc         1 UWP       0.422500
     17 N4          -2.5360     1.3420    10.9150 nc         1 UWP      -0.577100
     18 C10         -4.9660    -0.2770    12.9270 cc         1 UWP       0.510500
     19 C11         -5.7560    -0.0610    14.1270 cc         1 UWP      -0.277500
     20 C12         -6.8730    -0.8240    14.5340 cc         1 UWP       0.300900
     21 N6          -7.3640    -0.3830    15.6680 nd         1 UWP      -0.539800
     22 N7          -6.5960     0.6530    16.0140 na         1 UWP       0.137800
     23 C14         -6.8320     1.2920    17.2940 cy         1 UWP       0.083000
     24 C15         -8.2630     1.8450    17.3990 cy         1 UWP       0.150800
     25 N8          -7.7550     3.1450    16.9530 nq         1 UWP      -0.701600
     26 C17         -8.2850     4.3490    17.5260 c3         1 UWP       0.093800
     27 F1         -10.4860     3.8360    16.8280 f          1 UWP      -0.112000
     28 F2         -10.0580     5.8880    17.3320 f          1 UWP      -0.112000
     29 F3          -9.2980     5.0410    15.5020 f          1 UWP      -0.112000
     30 N9          -3.8130    -0.0830    18.2470 n1         1 UWP      -0.436000
     31 H5          -6.0810    -4.0030    11.9690 h4         1 UWP       0.053100
     32 H6          -2.9050    -0.9650     9.7860 h4         1 UWP       0.163000
     33 H8          -2.1590     3.2400    11.6980 h4         1 UWP       0.046800
     34 H10         -4.8800     1.6530    15.2740 h4         1 UWP       0.161000
     35 H7          -3.9880     2.6170    13.5830 ha         1 UWP       0.212000
     36 H14         -6.1200     3.0500    18.3470 h1         1 UWP       0.072700
     37 H13         -5.6060     3.1080    16.6520 h1         1 UWP       0.072700
     38 H18         -6.5770     0.8450    19.3920 hc         1 UWP       0.092200
     39 H17         -6.9100    -0.5650    18.3980 hc         1 UWP       0.092200
     40 H3          -4.0720    -6.5240     8.4610 h1         1 UWP       0.057367
     41 H1          -5.5330    -5.8890     7.6770 h1         1 UWP       0.057367
     42 H2          -3.9590    -5.1450     7.3570 h1         1 UWP       0.057367
     43 H4          -3.5750    -3.0660     8.5980 h4         1 UWP       0.153000
     44 H9          -7.3240    -1.6590    14.0220 h4         1 UWP       0.056100
     45 H12         -9.0200     1.3790    16.7690 h1         1 UWP       0.072700
     46 H11         -8.6090     1.8450    18.4400 h1         1 UWP       0.072700
     47 H16         -8.5220     4.2550    18.5970 h1         1 UWP       0.070700
     48 H15         -7.5450     5.1460    17.4270 h1         1 UWP       0.070700
     49 C1          -4.5730    -5.6220     8.1150 c3         1 UWP       0.072900
     50 C20         -4.9430     0.1140    18.3370 c1         1 UWP       0.288900
@<TRIPOS>BOND
     1     1     4 1   
     2     1     5 1   
     3     1    17 1   
     4     2     3 2   
     5     2    15 1   
     6     2    31 1   
     7     3    13 1   
     8     4     8 2   
     9     4    18 1   
    10     5    16 2   
    11     5    32 1   
    12     6     8 1   
    13     6    17 2   
    14     6    33 1   
    15     7    19 2   
    16     7    22 1   
    17     7    34 1   
    18     8    35 1   
    19     9    16 1   
    20     9    18 2   
    21    10    26 1   
    22    10    27 1   
    23    10    28 1   
    24    10    29 1   
    25    11    23 1   
    26    11    25 1   
    27    11    36 1   
    28    11    37 1   
    29    12    23 1   
    30    12    38 1   
    31    12    39 1   
    32    12    50 1   
    33    13    14 1   
    34    13    49 1   
    35    14    15 2   
    36    14    43 1   
    37    15    16 1   
    38    18    19 1   
    39    19    20 1   
    40    20    21 2   
    41    20    44 1   
    42    21    22 1   
    43    22    23 1   
    44    23    24 1   
    45    24    25 1   
    46    24    45 1   
    47    24    46 1   
    48    25    26 1   
    49    26    47 1   
    50    26    48 1   
    51    30    50 3   
    52    40    49 1   
    53    41    49 1   
    54    42    49 1   
@<TRIPOS>SUBSTRUCTURE
     1 UWP         1 TEMP              0 ****  ****    0 ROOT
