@<TRIPOS>MOLECULE
UWQ
   36    37     1     0     0
SMALL
No Charge or Current Charge


@<TRIPOS>ATOM
      1 C01        -20.7900   -24.2090    -2.1060 c3         1 UWQ       0.146900
      2 C03        -18.4310   -23.9260    -2.7810 c6         1 UWQ       0.170300
      3 C04        -18.4990   -22.4230    -3.1500 c6         1 UWQ      -0.087900
      4 C05        -18.0490   -21.5390    -1.9650 c6         1 UWQ       0.196800
      5 C09        -17.0850   -20.9640     1.0360 ca         1 UWQ      -0.273500
      6 C10        -18.2140   -20.1290     1.1680 ca         1 UWQ      -0.031500
      7 C11        -19.0650   -20.2620     2.2790 ca         1 UWQ      -0.082000
      8 C12        -18.7970   -21.2250     3.2740 ca         1 UWQ      -0.150600
      9 C13        -17.6620   -22.0550     3.1410 ca         1 UWQ      -0.082000
     10 C14        -16.8100   -21.9240     2.0310 ca         1 UWQ      -0.031500
     11 C15        -19.7190   -21.3550     4.4590 c          1 UWQ       0.578500
     12 C17        -16.5900   -23.3210    -1.1250 c6         1 UWQ       0.196800
     13 C18        -17.0080   -24.2570    -2.2830 c6         1 UWQ      -0.087900
     14 N06        -16.6730   -21.8900    -1.5240 n3         1 UWQ      -0.719500
     15 O02        -19.3940   -24.2900    -1.7650 os         1 UWQ      -0.461000
     16 O08        -14.6660   -21.3280    -0.0680 o          1 UWQ      -0.532500
     17 O16        -16.1430   -19.4630    -0.9830 o          1 UWQ      -0.532500
     18 S07        -15.9960   -20.8010    -0.3960 sy         1 UWQ       1.150600
     19 H1         -21.4030   -24.6170    -1.2930 h1         1 UWQ       0.029033
     20 H2         -21.1000   -23.1690    -2.2680 h1         1 UWQ       0.029033
     21 H3         -21.0040   -24.7850    -3.0160 h1         1 UWQ       0.029033
     22 H4         -18.6370   -24.5280    -3.6790 h1         1 UWQ       0.041700
     23 H5         -17.8410   -22.2310    -4.0080 hc         1 UWQ       0.060200
     24 H6         -19.5070   -22.1380    -3.4770 hc         1 UWQ       0.060200
     25 H7         -18.1010   -20.4890    -2.2880 h1         1 UWQ       0.058950
     26 H8         -18.7650   -21.6580    -1.1380 h1         1 UWQ       0.058950
     27 H9         -18.4400   -19.3790     0.4120 ha         1 UWQ       0.138500
     28 H10        -19.9330   -19.6120     2.3640 ha         1 UWQ       0.129000
     29 H11        -17.4370   -22.8030     3.8980 ha         1 UWQ       0.129000
     30 H12        -15.9400   -22.5740     1.9490 ha         1 UWQ       0.138500
     31 H13        -20.5860   -20.6580     4.4760 h4         1 UWQ      -0.005800
     32 H16        -17.2350   -23.5180    -0.2550 h1         1 UWQ       0.058950
     33 H17        -15.5640   -23.5870    -0.8310 h1         1 UWQ       0.058950
     34 H18        -16.9590   -25.3030    -1.9550 hc         1 UWQ       0.060200
     35 H19        -16.2940   -24.1540    -3.1100 hc         1 UWQ       0.060200
     36 O1         -19.5510   -22.1670     5.3630 o          1 UWQ      -0.502100
@<TRIPOS>BOND
     1     1    15 1   
     2     1    19 1   
     3     1    20 1   
     4     1    21 1   
     5     2     3 1   
     6     2    13 1   
     7     2    15 1   
     8     2    22 1   
     9     3     4 1   
    10     3    23 1   
    11     3    24 1   
    12     4    14 1   
    13     4    25 1   
    14     4    26 1   
    15     5     6 ar  
    16     5    10 ar  
    17     5    18 1   
    18     6     7 ar  
    19     6    27 1   
    20     7     8 ar  
    21     7    28 1   
    22     8     9 ar  
    23     8    11 1   
    24     9    10 ar  
    25     9    29 1   
    26    10    30 1   
    27    11    31 1   
    28    11    36 2   
    29    12    13 1   
    30    12    14 1   
    31    12    32 1   
    32    12    33 1   
    33    13    34 1   
    34    13    35 1   
    35    14    18 1   
    36    16    18 2   
    37    17    18 2   
@<TRIPOS>SUBSTRUCTURE
     1 UWQ         1 TEMP              0 ****  ****    0 ROOT
