@<TRIPOS>MOLECULE
UWQ
   36    37     1     0     0
SMALL
abcg2


@<TRIPOS>ATOM
      1 C01        -20.7210   -24.2740    -2.4430 c3         1 UWQ       0.146900
      2 C03        -18.4150   -23.9300    -2.8830 c6         1 UWQ       0.170300
      3 C04        -18.4770   -22.4340    -3.1800 c6         1 UWQ      -0.087900
      4 C05        -18.1890   -21.6020    -1.9420 c6         1 UWQ       0.196800
      5 C09        -17.1110   -20.9540     1.1190 ca         1 UWQ      -0.273500
      6 C10        -18.2190   -20.1270     1.2500 ca         1 UWQ      -0.031500
      7 C11        -18.9950   -20.2260     2.3930 ca         1 UWQ      -0.082000
      8 C12        -18.6620   -21.1340     3.3930 ca         1 UWQ      -0.150600
      9 C13        -17.5440   -21.9540     3.2490 ca         1 UWQ      -0.082000
     10 C14        -16.7650   -21.8680     2.1100 ca         1 UWQ      -0.031500
     11 C15        -19.5060   -21.2010     4.6030 c          1 UWQ       0.578500
     12 C17        -16.7790   -23.3960    -1.0390 c6         1 UWQ       0.196800
     13 C18        -17.0630   -24.2510    -2.2640 c6         1 UWQ      -0.087900
     14 N06        -16.8760   -21.9770    -1.4030 n3         1 UWQ      -0.719500
     15 O02        -19.4020   -24.3490    -1.9650 os         1 UWQ      -0.461000
     16 O08        -14.8270   -21.4060    -0.0800 o          1 UWQ      -0.532500
     17 O16        -16.3020   -19.5790    -0.9620 o          1 UWQ      -0.532500
     18 S07        -16.1550   -20.9020    -0.3810 sy         1 UWQ       1.150600
     19 H1         -21.3600   -24.7950    -1.7320 h1         1 UWQ       0.029033
     20 H2         -21.0860   -23.2460    -2.5330 h1         1 UWQ       0.029033
     21 H3         -20.8300   -24.7570    -3.4220 h1         1 UWQ       0.029033
     22 H4         -18.5250   -24.4840    -3.8260 h1         1 UWQ       0.041700
     23 H5         -17.7380   -22.2040    -3.9520 hc         1 UWQ       0.060200
     24 H6         -19.4480   -22.1410    -3.5850 hc         1 UWQ       0.060200
     25 H7         -18.1830   -20.5470    -2.2070 h1         1 UWQ       0.058950
     26 H8         -18.9740   -21.7550    -1.1900 h1         1 UWQ       0.058950
     27 H9         -18.4760   -19.4100     0.4820 ha         1 UWQ       0.138500
     28 H10        -19.8620   -19.5870     2.5100 ha         1 UWQ       0.129000
     29 H11        -17.2800   -22.6580     4.0280 ha         1 UWQ       0.129000
     30 H12        -15.8960   -22.5020     2.0030 ha         1 UWQ       0.138500
     31 H13        -20.3820   -20.5300     4.5880 h4         1 UWQ      -0.005800
     32 H16        -17.4830   -23.6380    -0.2350 h1         1 UWQ       0.058950
     33 H17        -15.7750   -23.6080    -0.6760 h1         1 UWQ       0.058950
     34 H18        -17.0140   -25.3040    -1.9790 hc         1 UWQ       0.060200
     35 H19        -16.2850   -24.0820    -3.0120 hc         1 UWQ       0.060200
     36 O1         -19.2830   -21.9170     5.5480 o          1 UWQ      -0.502100
@<TRIPOS>BOND
     1     1    15 1   
     2     1    19 1   
     3     1    20 1   
     4     1    21 1   
     5     2     3 1   
     6     2    13 1   
     7     2    15 1   
     8     2    22 1   
     9     3     4 1   
    10     3    23 1   
    11     3    24 1   
    12     4    14 1   
    13     4    25 1   
    14     4    26 1   
    15     5     6 ar  
    16     5    10 ar  
    17     5    18 1   
    18     6     7 ar  
    19     6    27 1   
    20     7     8 ar  
    21     7    28 1   
    22     8     9 ar  
    23     8    11 1   
    24     9    10 ar  
    25     9    29 1   
    26    10    30 1   
    27    11    31 1   
    28    11    36 2   
    29    12    13 1   
    30    12    14 1   
    31    12    32 1   
    32    12    33 1   
    33    13    34 1   
    34    13    35 1   
    35    14    18 1   
    36    16    18 2   
    37    17    18 2   
@<TRIPOS>SUBSTRUCTURE
     1 UWQ         1 TEMP              0 ****  ****    0 ROOT
