@<TRIPOS>MOLECULE
UWR
   18    18     1     0     0
SMALL
No Charge or Current Charge


@<TRIPOS>ATOM
      1 N1          -2.2460    16.4140   -34.6290 n8         1 UWR      -0.993200
      2 C7          -3.4010    15.5730   -36.6550 c1         1 UWR       0.304900
      3 C1          -2.1150    12.8960   -34.6570 ca         1 UWR      -0.092000
      4 C5          -0.0290    11.9400   -35.4740 ca         1 UWR      -0.093000
      5 C6          -2.8680    15.2430   -35.3070 c3         1 UWR       0.283900
      6 C4           0.2290    13.1210   -36.1870 ca         1 UWR       0.127000
      7 C3          -0.6820    14.1910   -36.1380 ca         1 UWR      -0.096000
      8 C2          -1.8660    14.0880   -35.3720 ca         1 UWR      -0.121300
      9 N           -3.7990    15.8510   -37.7170 n1         1 UWR      -0.446000
     10 C           -1.2020    11.8280   -34.7080 ca         1 UWR      -0.096000
     11 H1          -1.8700    16.0980   -33.7280 hn         1 UWR       0.415000
     12 H2          -1.4060    16.6840   -35.1530 hn         1 UWR       0.415000
     13 H4          -3.0190    12.7940   -34.0580 ha         1 UWR       0.123000
     14 H5           0.6780    11.1160   -35.5140 ha         1 UWR       0.134000
     15 H6          -3.7310    14.9250   -34.7030 h1         1 UWR       0.089700
     16 H7          -0.4640    15.0960   -36.7000 ha         1 UWR       0.126000
     17 H8          -1.4030    10.9140   -34.1540 ha         1 UWR       0.124000
     18 Cl           1.6960    13.2630   -37.1470 cl         1 UWR      -0.205000
@<TRIPOS>BOND
     1     1     5 1   
     2     1    11 1   
     3     1    12 1   
     4     2     5 1   
     5     2     9 3   
     6     3     8 ar  
     7     3    10 ar  
     8     3    13 1   
     9     4     6 ar  
    10     4    10 ar  
    11     4    14 1   
    12     5     8 1   
    13     5    15 1   
    14     6     7 ar  
    15     6    18 1   
    16     7     8 ar  
    17     7    16 1   
    18    10    17 1   
@<TRIPOS>SUBSTRUCTURE
     1 UWR         1 TEMP              0 ****  ****    0 ROOT
