@<TRIPOS>MOLECULE
UWR
   18    18     1     0     0
SMALL
abcg2


@<TRIPOS>ATOM
      1 N1          -2.1580    16.6220   -35.0600 n8         1 UWR      -0.993200
      2 C7          -3.6810    15.2600   -36.2820 c1         1 UWR       0.304900
      3 C1          -2.2050    12.8290   -34.9060 ca         1 UWR      -0.092000
      4 C5          -0.0770    11.8800   -35.5320 ca         1 UWR      -0.093000
      5 C6          -2.7250    15.2850   -35.1610 c3         1 UWR       0.283900
      6 C4           0.3430    13.1460   -35.9120 ca         1 UWR       0.127000
      7 C3          -0.4840    14.2560   -35.8030 ca         1 UWR      -0.096000
      8 C2          -1.7680    14.0940   -35.2950 ca         1 UWR      -0.121300
      9 N           -4.4250    15.2240   -37.1580 n1         1 UWR      -0.446000
     10 C           -1.3640    11.7310   -35.0260 ca         1 UWR      -0.096000
     11 H1          -1.5660    16.6760   -34.2380 hn         1 UWR       0.415000
     12 H2          -1.5850    16.8460   -35.8670 hn         1 UWR       0.415000
     13 H4          -3.2040    12.7060   -34.5060 ha         1 UWR       0.123000
     14 H5           0.5880    11.0320   -35.6230 ha         1 UWR       0.134000
     15 H6          -3.3230    15.1140   -34.2610 h1         1 UWR       0.089700
     16 H7          -0.1200    15.2270   -36.1050 ha         1 UWR       0.126000
     17 H8          -1.7050    10.7510   -34.7190 ha         1 UWR       0.124000
     18 CL           1.9620    13.3560   -36.5470 cl         1 UWR      -0.205000
@<TRIPOS>BOND
     1     1     5 1   
     2     1    11 1   
     3     1    12 1   
     4     2     5 1   
     5     2     9 3   
     6     3     8 ar  
     7     3    10 ar  
     8     3    13 1   
     9     4     6 ar  
    10     4    10 ar  
    11     4    14 1   
    12     5     8 1   
    13     5    15 1   
    14     6     7 ar  
    15     6    18 1   
    16     7     8 ar  
    17     7    16 1   
    18    10    17 1   
@<TRIPOS>SUBSTRUCTURE
     1 UWR         1 TEMP              0 ****  ****    0 ROOT
