@<TRIPOS>MOLECULE
UWS
   26    27     1     0     0
SMALL
bcc


@<TRIPOS>ATOM
      1 N1         -20.8510    16.1490    29.0090 nc         1 UWS      -0.431300
      2 C4         -19.4920    14.2610    28.7860 c3         1 UWS       0.074700
      3 C5         -21.9510    16.7610    29.2980 cd         1 UWS       0.358600
      4 C6         -22.0080    18.2410    29.1130 c3         1 UWS      -0.116400
      5 C7         -23.0870    16.0420    29.7850 cd         1 UWS      -0.184600
      6 C8         -23.0110    14.7070    29.9330 cc         1 UWS      -0.209200
      7 N          -20.7770    14.8260    29.1690 n          1 UWS      -0.199800
      8 O          -21.6510    12.7850    29.6700 o          1 UWS      -0.603500
      9 C1         -18.9800    14.0310    25.1700 cc         1 UWS       0.337600
     10 C2         -18.5500    14.6160    26.3920 cc         1 UWS      -0.377600
     11 C3         -19.3830    14.0850    27.3130 cd         1 UWS       0.263000
     12 C9         -21.7960    13.9980    29.5940 c          1 UWS       0.679700
     13 N2         -19.9870    13.2310    25.3730 nd         1 UWS      -0.359300
     14 O1         -20.2420    13.2570    26.7130 os         1 UWS      -0.101100
     15 H1         -19.3520    13.3120    29.3010 h1         1 UWS       0.092200
     16 H2         -18.7090    14.9390    29.1180 h1         1 UWS       0.092200
     17 H3         -21.0550    18.6300    28.7650 hc         1 UWS       0.055033
     18 H4         -22.7780    18.5080    28.3880 hc         1 UWS       0.055033
     19 H5         -22.2650    18.7370    30.0510 hc         1 UWS       0.055033
     20 H6         -23.9940    16.5800    30.0310 ha         1 UWS       0.147000
     21 H7         -23.8450    14.1220    30.2960 ha         1 UWS       0.166000
     22 H8         -18.9380    13.6350    23.0710 hc         1 UWS       0.056033
     23 H9         -18.5290    15.2960    23.5180 hc         1 UWS       0.056033
     24 H10        -17.3640    14.0080    23.7840 hc         1 UWS       0.056033
     25 H11        -17.7500    15.3190    26.5460 ha         1 UWS       0.171000
     26 C          -18.4260    14.2500    23.8080 c3         1 UWS      -0.132400
@<TRIPOS>BOND
     1     1     3 2   
     2     1     7 1   
     3     2     7 1   
     4     2    11 1   
     5     2    15 1   
     6     2    16 1   
     7     3     4 1   
     8     3     5 1   
     9     4    17 1   
    10     4    18 1   
    11     4    19 1   
    12     5     6 2   
    13     5    20 1   
    14     6    12 1   
    15     6    21 1   
    16     7    12 1   
    17     8    12 2   
    18     9    10 1   
    19     9    13 2   
    20     9    26 1   
    21    10    11 2   
    22    10    25 1   
    23    11    14 1   
    24    13    14 1   
    25    22    26 1   
    26    23    26 1   
    27    24    26 1   
@<TRIPOS>SUBSTRUCTURE
     1 UWS         1 TEMP              0 ****  ****    0 ROOT
