@<TRIPOS>MOLECULE
UWS
   26    27     1     0     0
SMALL
No Charge or Current Charge


@<TRIPOS>ATOM
      1 N1         -20.7460    16.2610    29.2590 nc         1 UWS      -0.431300
      2 C4         -19.4100    14.2710    28.9390 c3         1 UWS       0.074700
      3 C5         -21.9060    16.9050    29.3870 cd         1 UWS       0.358600
      4 C6         -21.8280    18.3940    29.5710 c3         1 UWS      -0.116400
      5 C7         -23.1650    16.1970    29.3460 cd         1 UWS      -0.234600
      6 C8         -23.1500    14.8210    29.1700 cc         1 UWS      -0.259200
      7 N          -20.7500    14.8840    29.0860 n          1 UWS      -0.132800
      8 O          -21.8640    12.8450    28.8660 o          1 UWS      -0.528000
      9 C1         -18.7230    13.7680    25.3610 cc         1 UWS       0.272300
     10 C2         -19.2800    14.5830    26.3580 cc         1 UWS      -0.229000
     11 C3         -19.0560    13.9200    27.5180 cd         1 UWS       0.153300
     12 C9         -21.9010    14.0580    29.0240 c          1 UWS       0.537200
     13 N2         -18.1760    12.6600    25.8310 nd         1 UWS      -0.359300
     14 O1         -18.3890    12.7510    27.2560 os         1 UWS      -0.056700
     15 H1         -19.3660    13.3620    29.5530 h1         1 UWS       0.092200
     16 H2         -18.6490    14.9590    29.3270 h1         1 UWS       0.092200
     17 H3         -21.3740    18.8720    28.6960 hc         1 UWS       0.055033
     18 H4         -22.8220    18.8330    29.7150 hc         1 UWS       0.055033
     19 H5         -21.2210    18.6490    30.4490 hc         1 UWS       0.055033
     20 H6         -24.1000    16.7400    29.4510 ha         1 UWS       0.197000
     21 H7         -24.0610    14.2310    29.1290 ha         1 UWS       0.216000
     22 H8         -19.7870    14.1510    23.5350 hc         1 UWS       0.056033
     23 H9         -18.3210    15.1280    23.7470 hc         1 UWS       0.056033
     24 H10        -18.1900    13.4160    23.3020 hc         1 UWS       0.056033
     25 H11        -19.7800    15.5340    26.2140 ha         1 UWS       0.153000
     26 C          -18.7560    14.1340    23.9060 c3         1 UWS      -0.132400
@<TRIPOS>BOND
     1     1     3 2   
     2     1     7 1   
     3     2     7 1   
     4     2    11 1   
     5     2    15 1   
     6     2    16 1   
     7     3     4 1   
     8     3     5 1   
     9     4    17 1   
    10     4    18 1   
    11     4    19 1   
    12     5     6 2   
    13     5    20 1   
    14     6    12 1   
    15     6    21 1   
    16     7    12 1   
    17     8    12 2   
    18     9    10 1   
    19     9    13 2   
    20     9    26 1   
    21    10    11 2   
    22    10    25 1   
    23    11    14 1   
    24    13    14 1   
    25    22    26 1   
    26    23    26 1   
    27    24    26 1   
@<TRIPOS>SUBSTRUCTURE
     1 UWS         1 TEMP              0 ****  ****    0 ROOT
