@<TRIPOS>MOLECULE
UWU
   28    30     1     0     0
SMALL
abcg2


@<TRIPOS>ATOM
      1 C16          3.1020    -0.3770     1.0160 ca         1 UWU      -0.089500
      2 C15          4.0680    -1.3730     1.0000 ca         1 UWU      -0.110500
      3 C14          4.1110    -2.2850    -0.0450 ca         1 UWU      -0.096000
      4 C13          3.1820    -2.2010    -1.0750 ca         1 UWU      -0.110500
      5 C12          2.2080    -1.2140    -1.0560 ca         1 UWU      -0.089500
      6 C11          2.1620    -0.2930    -0.0090 ca         1 UWU      -0.078800
      7 C4           1.1530     0.7840     0.0020 cc         1 UWU       0.105600
      8 C3           1.5400     2.0780     0.0520 cd         1 UWU      -0.329200
      9 C2           0.5890     3.1640     0.0370 c          1 UWU       0.675300
     10 O2           0.8540     4.3390     0.0720 o          1 UWU      -0.476000
     11 O8          -0.7260     2.8250    -0.0410 os         1 UWU      -0.335200
     12 C8A         -1.1590     1.5470    -0.0590 ca         1 UWU       0.216100
     13 C8          -2.5280     1.3550    -0.0920 ca         1 UWU      -0.181000
     14 C4A         -0.2580     0.4790    -0.0340 ca         1 UWU      -0.183800
     15 C5          -0.7860    -0.8140    -0.0060 ca         1 UWU       0.002000
     16 C6          -2.1450    -1.0160    -0.0350 ca         1 UWU      -0.018000
     17 CL          -2.7860    -2.6240     0.0010 cl         1 UWU      -0.194000
     18 C7          -3.0410     0.0650    -0.0860 ca         1 UWU       0.207100
     19 O7          -4.3630    -0.0820    -0.1210 oh         1 UWU      -0.515100
     20 H16          3.0680     0.3290     1.8360 ha         1 UWU       0.121000
     21 H15          4.7870    -1.4350     1.8060 ha         1 UWU       0.118500
     22 H14          4.8660    -3.0600    -0.0590 ha         1 UWU       0.117000
     23 H13          3.2160    -2.9030    -1.8970 ha         1 UWU       0.118500
     24 H12          1.4950    -1.1480    -1.8680 ha         1 UWU       0.121000
     25 H3           2.5860     2.3520     0.0720 ha         1 UWU       0.219000
     26 H8          -3.2010     2.2010    -0.1170 ha         1 UWU       0.159000
     27 H5          -0.1250    -1.6680     0.0480 ha         1 UWU       0.142000
     28 H7          -4.6200    -1.0140    -0.1130 ho         1 UWU       0.487000
@<TRIPOS>BOND
     1     1     2 ar  
     2     1     6 ar  
     3     1    20 1   
     4     2     3 ar  
     5     2    21 1   
     6     3     4 ar  
     7     3    22 1   
     8     4     5 ar  
     9     4    23 1   
    10     5     6 ar  
    11     5    24 1   
    12     6     7 1   
    13     7     8 2   
    14     7    14 1   
    15     8     9 1   
    16     8    25 1   
    17     9    10 2   
    18     9    11 1   
    19    11    12 1   
    20    12    13 ar  
    21    12    14 ar  
    22    13    18 ar  
    23    13    26 1   
    24    14    15 ar  
    25    15    16 ar  
    26    15    27 1   
    27    16    17 1   
    28    16    18 ar  
    29    18    19 1   
    30    19    28 1   
@<TRIPOS>SUBSTRUCTURE
     1 UWU         1 TEMP              0 ****  ****    0 ROOT
