@<TRIPOS>MOLECULE
UWU
   28    30     1     0     0
SMALL
No Charge or Current Charge


@<TRIPOS>ATOM
      1 C16          3.1330    -0.3680     1.0320 ca         1 UWU      -0.089500
      2 C15          4.1370    -1.3520     0.9980 ca         1 UWU      -0.110500
      3 C14          4.1850    -2.2730    -0.0620 ca         1 UWU      -0.096000
      4 C13          3.2290    -2.2070    -1.0890 ca         1 UWU      -0.110500
      5 C12          2.2250    -1.2230    -1.0560 ca         1 UWU      -0.089500
      6 C11          2.1670    -0.3000     0.0080 ca         1 UWU      -0.078800
      7 C4           1.1270     0.7270     0.0390 cc         1 UWU       0.105600
      8 C3           1.5430     2.0370     0.0680 cd         1 UWU      -0.329200
      9 C2           0.6150     3.1750     0.0340 c          1 UWU       0.675300
     10 O2           1.0060     4.3320     0.0520 o          1 UWU      -0.476000
     11 O8          -0.7140     2.8680    -0.0400 os         1 UWU      -0.335200
     12 C8A         -1.1960     1.5850    -0.0560 ca         1 UWU       0.216100
     13 C8          -2.5820     1.3870    -0.1030 ca         1 UWU      -0.181000
     14 C4A         -0.3140     0.4890    -0.0110 ca         1 UWU      -0.183800
     15 C5          -0.8470    -0.8180     0.0110 ca         1 UWU       0.002000
     16 C6          -2.2380    -1.0180    -0.0360 ca         1 UWU      -0.018000
     17 Cl          -2.8750    -2.6630    -0.0130 cl         1 UWU      -0.194000
     18 C7          -3.1070     0.0890    -0.0970 ca         1 UWU       0.207100
     19 O7          -4.4600    -0.0870    -0.1420 oh         1 UWU      -0.515100
     20 H16          3.1020     0.3390     1.8590 ha         1 UWU       0.121000
     21 H15          4.8770    -1.4000     1.7940 ha         1 UWU       0.118500
     22 H14          4.9610    -3.0340    -0.0880 ha         1 UWU       0.117000
     23 H13          3.2670    -2.9170    -1.9130 ha         1 UWU       0.118500
     24 H12          1.4940    -1.1740    -1.8600 ha         1 UWU       0.121000
     25 H3           2.5890     2.3110     0.0940 ha         1 UWU       0.219000
     26 H8          -3.2500     2.2430    -0.1390 ha         1 UWU       0.159000
     27 H5          -0.1940    -1.6850     0.0720 ha         1 UWU       0.142000
     28 H7          -4.6340    -1.0530    -0.1260 ho         1 UWU       0.487000
@<TRIPOS>BOND
     1     1     2 ar  
     2     1     6 ar  
     3     1    20 1   
     4     2     3 ar  
     5     2    21 1   
     6     3     4 ar  
     7     3    22 1   
     8     4     5 ar  
     9     4    23 1   
    10     5     6 ar  
    11     5    24 1   
    12     6     7 1   
    13     7     8 2   
    14     7    14 1   
    15     8     9 1   
    16     8    25 1   
    17     9    10 2   
    18     9    11 1   
    19    11    12 1   
    20    12    13 ar  
    21    12    14 ar  
    22    13    18 ar  
    23    13    26 1   
    24    14    15 ar  
    25    15    16 ar  
    26    15    27 1   
    27    16    17 1   
    28    16    18 ar  
    29    18    19 1   
    30    19    28 1   
@<TRIPOS>SUBSTRUCTURE
     1 UWU         1 TEMP              0 ****  ****    0 ROOT
