@<TRIPOS>MOLECULE
UWV
   24    25     1     0     0
SMALL
bcc


@<TRIPOS>ATOM
      1 N1         -18.8950    15.5960    25.2380 na         1 UWV       0.000400
      2 C4         -21.5480    12.0280    25.9160 ca         1 UWV      -0.174000
      3 C5         -21.4960    12.5940    27.1940 ca         1 UWV       0.144600
      4 C6         -19.0480    12.6860    27.2590 c3         1 UWV       0.181500
      5 C7         -18.7950    13.7360    26.2140 cc         1 UWV       0.270600
      6 C8         -17.9520    13.6440    25.0900 cc         1 UWV      -0.306300
      7 N          -20.3320    12.7650    27.9070 nu         1 UWV      -0.731600
      8 C          -22.7250    12.9420    27.7640 ca         1 UWV       0.061900
      9 C1         -23.9330    12.7490    27.1380 ca         1 UWV      -0.129000
     10 C2         -23.9580    12.1760    25.8700 ca         1 UWV      -0.155000
     11 C3         -22.7600    11.8190    25.2710 ca         1 UWV      -0.105000
     12 C9         -18.0490    14.8760    24.4860 cd         1 UWV      -0.136300
     13 F          -22.7040    13.4960    28.9970 f          1 UWV      -0.155900
     14 N2         -19.3580    14.9280    26.2880 nd         1 UWV      -0.517800
     15 H1         -19.1980    16.5430    25.0740 hn         1 UWV       0.321700
     16 H3         -18.9110    11.6960    26.8170 h1         1 UWV       0.062700
     17 H4         -18.2930    12.7600    28.0440 h1         1 UWV       0.062700
     18 H5         -17.3660    12.7990    24.7670 ha         1 UWV       0.164000
     19 H6         -20.3790    13.4540    28.6390 hn         1 UWV       0.425800
     20 H7         -24.8470    13.0420    27.6390 ha         1 UWV       0.144000
     21 H8         -24.9010    12.0170    25.3660 ha         1 UWV       0.133000
     22 H9         -22.7590    11.3740    24.2840 ha         1 UWV       0.129000
     23 H10        -17.5930    15.2780    23.5960 h4         1 UWV       0.173000
     24 H2         -20.6320    11.7470    25.4140 ha         1 UWV       0.136000
@<TRIPOS>BOND
     1     1    12 1   
     2     1    14 1   
     3     1    15 1   
     4     2     3 ar  
     5     2    11 ar  
     6     2    24 1   
     7     3     7 1   
     8     3     8 ar  
     9     4     5 1   
    10     4     7 1   
    11     4    16 1   
    12     4    17 1   
    13     5     6 1   
    14     5    14 2   
    15     6    12 2   
    16     6    18 1   
    17     7    19 1   
    18     8     9 ar  
    19     8    13 1   
    20     9    10 ar  
    21     9    20 1   
    22    10    11 ar  
    23    10    21 1   
    24    11    22 1   
    25    12    23 1   
@<TRIPOS>SUBSTRUCTURE
     1 UWV         1 TEMP              0 ****  ****    0 ROOT
