@<TRIPOS>MOLECULE
UWV
   24    25     1     0     0
SMALL
No Charge or Current Charge


@<TRIPOS>ATOM
      1 N1         -18.3440    15.8500    25.5890 na         1 UWV       0.000800
      2 C4         -21.4430    11.5450    26.0900 ca         1 UWV      -0.156000
      3 C5         -21.4330    12.4500    27.1690 ca         1 UWV       0.283000
      4 C6         -18.8880    12.7400    27.3490 c3         1 UWV       0.181500
      5 C7         -18.7190    13.9220    26.4060 cc         1 UWV       0.205300
      6 C8         -18.9390    13.8290    25.0220 cc         1 UWV      -0.223000
      7 N          -20.2590    12.6530    27.9160 nu         1 UWV      -0.925200
      8 C          -22.6260    13.1410    27.4960 ca         1 UWV       0.097000
      9 C1         -23.7980    12.9380    26.7470 ca         1 UWV      -0.111000
     10 C2         -23.7920    12.0380    25.6670 ca         1 UWV      -0.137000
     11 C3         -22.6160    11.3420    25.3400 ca         1 UWV      -0.087000
     12 C9         -18.7020    15.0580    24.4890 cd         1 UWV      -0.169000
     13 F          -22.6520    14.0130    28.5340 f          1 UWV      -0.191000
     14 N2         -18.3550    15.1340    26.7890 nd         1 UWV      -0.517800
     15 H1         -18.0960    16.8390    25.5620 hn         1 UWV       0.372000
     16 H3         -18.6340    11.8170    26.8120 h1         1 UWV       0.062700
     17 H4         -18.1580    12.8430    28.1640 h1         1 UWV       0.062700
     18 H5         -19.2450    12.9310    24.4940 ha         1 UWV       0.146000
     19 H6         -20.4140    13.2450    28.7350 hn         1 UWV       0.481000
     20 H7         -24.7060    13.4760    27.0060 ha         1 UWV       0.126000
     21 H8         -24.6980    11.8790    25.0870 ha         1 UWV       0.115000
     22 H9         -22.6140    10.6420    24.5070 ha         1 UWV       0.111000
     23 H10        -18.7540    15.4280    23.4700 h4         1 UWV       0.155000
     24 H2         -20.5460    10.9920    25.8300 ha         1 UWV       0.118000
@<TRIPOS>BOND
     1     1    12 1   
     2     1    14 1   
     3     1    15 1   
     4     2     3 ar  
     5     2    11 ar  
     6     2    24 1   
     7     3     7 1   
     8     3     8 ar  
     9     4     5 1   
    10     4     7 1   
    11     4    16 1   
    12     4    17 1   
    13     5     6 1   
    14     5    14 2   
    15     6    12 2   
    16     6    18 1   
    17     7    19 1   
    18     8     9 ar  
    19     8    13 1   
    20     9    10 ar  
    21     9    20 1   
    22    10    11 ar  
    23    10    21 1   
    24    11    22 1   
    25    12    23 1   
@<TRIPOS>SUBSTRUCTURE
     1 UWV         1 TEMP              0 ****  ****    0 ROOT
