@<TRIPOS>MOLECULE
UWX
   64    67     1     0     0
SMALL
No Charge or Current Charge


@<TRIPOS>ATOM
      1 CAA         -6.1970    -1.4080     3.4480 c3         1 UWX      -0.090100
      2 CAB         -6.5360    -0.5090     1.0860 c3         1 UWX      -0.090100
      3 CAC          2.7760    -3.2960    -2.7830 c3         1 UWX       0.069300
      4 CAD          3.7050    -1.5840     2.7090 c3         1 UWX       0.074300
      5 CAI         -3.5920     1.3760     0.3760 ca         1 UWX      -0.135000
      6 CAJ         -2.6820    -0.8730     0.5050 ca         1 UWX      -0.135000
      7 CAK         -2.8530     1.6120    -0.7960 ca         1 UWX      -0.011000
      8 CAL         -1.9420    -0.6460    -0.6670 ca         1 UWX      -0.011000
      9 CAM          1.7890    -0.7230    -1.8090 ca         1 UWX      -0.130000
     10 CAN          2.2340     0.0980     0.8260 ca         1 UWX      -0.135000
     11 CAO         -0.8320     3.4480     1.7100 c6         1 UWX       0.152100
     12 CAP          1.0000     4.6430     0.7060 c6         1 UWX       0.152100
     13 CAQ         -0.0880     2.0890     1.5550 c6         1 UWX       0.137800
     14 CAR          1.8090     3.3260     0.5040 c6         1 UWX       0.137800
     15 CAS         -4.3070    -0.1180     2.3090 c3         1 UWX      -0.042100
     16 CAV         -3.5110     0.1340     1.0340 ca         1 UWX      -0.016300
     17 CAW          1.2290     0.4760    -1.3510 ca         1 UWX       0.269000
     18 CAX         -2.0250     0.6000    -1.3210 ca         1 UWX      -0.316500
     19 CAY          1.4560     0.8970    -0.0220 ca         1 UWX       0.202000
     20 CAZ          4.2050    -3.4030    -0.7420 c          1 UWX       0.488000
     21 CBA          4.4580    -2.9370     0.7540 c          1 UWX       0.487000
     22 CBB          2.5170    -1.5700    -0.9410 ca         1 UWX       0.053600
     23 CBC          2.7440    -1.1520     0.4010 ca         1 UWX       0.031600
     24 CBD         -5.5140    -1.0700     2.1030 c3         1 UWX      -0.055700
     25 NAT          0.4760     1.2910    -2.1890 nu         1 UWX      -0.838100
     26 NBE          0.9180     2.1250     0.4470 nh         1 UWX      -0.786400
     27 NBF          3.1970    -2.7300    -1.4730 n          1 UWX      -0.290000
     28 NBG          3.6570    -1.8820     1.2520 n          1 UWX      -0.290000
     29 OAE          4.8490    -4.3310    -1.2300 o          1 UWX      -0.481000
     30 OAF          5.3030    -3.4960     1.4530 o          1 UWX      -0.485000
     31 OAG         -0.8270    -0.3410    -3.5290 o          1 UWX      -0.530000
     32 OAH         -1.4680     2.1450    -3.4380 o          1 UWX      -0.530000
     33 OAU          0.1150     4.5330     1.8460 os         1 UWX      -0.446000
     34 SBH         -1.0370     0.9060    -2.7880 sy         1 UWX       1.138600
     35 H1          -6.6100    -0.5050     3.9150 hc         1 UWX       0.036033
     36 H2          -7.0160    -2.1220     3.2980 hc         1 UWX       0.036033
     37 H3          -5.4810    -1.8590     4.1450 hc         1 UWX       0.036033
     38 H4          -6.0730    -0.3630     0.1030 hc         1 UWX       0.036033
     39 H5          -7.3760    -1.2030     0.9590 hc         1 UWX       0.036033
     40 H6          -6.9350     0.4540     1.4250 hc         1 UWX       0.036033
     41 H7           3.2470    -2.7320    -3.5980 h1         1 UWX       0.062033
     42 H8           3.0580    -4.3530    -2.8740 h1         1 UWX       0.062033
     43 H9           1.6850    -3.2380    -2.8840 h1         1 UWX       0.062033
     44 H10          2.6930    -1.3830     3.0830 h1         1 UWX       0.056367
     45 H11          4.1050    -2.4320     3.2800 h1         1 UWX       0.056367
     46 H12          4.3390    -0.7060     2.8850 h1         1 UWX       0.056367
     47 H13         -4.2290     2.1630     0.7730 ha         1 UWX       0.120500
     48 H14         -2.6080    -1.8350     1.0060 ha         1 UWX       0.120500
     49 H15         -2.9250     2.5830    -1.2840 ha         1 UWX       0.137000
     50 H16         -1.2990    -1.4340    -1.0560 ha         1 UWX       0.137000
     51 H17          1.6540    -0.9730    -2.8550 ha         1 UWX       0.162000
     52 H18          2.4370     0.4770     1.8220 ha         1 UWX       0.128000
     53 H19         -1.4660     3.6290     0.8300 h1         1 UWX       0.054450
     54 H20         -1.4800     3.4190     2.5970 h1         1 UWX       0.054450
     55 H21          1.6900     5.4830     0.8640 h1         1 UWX       0.054450
     56 H22          0.4050     4.8560    -0.1940 h1         1 UWX       0.054450
     57 H23          0.4080     1.8490     2.5060 h1         1 UWX       0.049950
     58 H24         -0.8300     1.3000     1.3670 h1         1 UWX       0.049950
     59 H25          2.3910     3.4100    -0.4250 h1         1 UWX       0.049950
     60 H26          2.5260     3.2200     1.3320 h1         1 UWX       0.049950
     61 H27         -3.6390    -0.5480     3.0670 hc         1 UWX       0.051700
     62 H28         -4.6640     0.8300     2.7300 hc         1 UWX       0.051700
     63 H29         -5.1290    -2.0130     1.6930 hc         1 UWX       0.049700
     64 H30          0.2710     2.1500    -1.6910 hn         1 UWX       0.506000
@<TRIPOS>BOND
     1     1    24 1   
     2     1    35 1   
     3     1    36 1   
     4     1    37 1   
     5     2    24 1   
     6     2    38 1   
     7     2    39 1   
     8     2    40 1   
     9     3    27 1   
    10     3    41 1   
    11     3    42 1   
    12     3    43 1   
    13     4    28 1   
    14     4    44 1   
    15     4    45 1   
    16     4    46 1   
    17     5     7 ar  
    18     5    16 ar  
    19     5    47 1   
    20     6     8 ar  
    21     6    16 ar  
    22     6    48 1   
    23     7    18 ar  
    24     7    49 1   
    25     8    18 ar  
    26     8    50 1   
    27     9    17 ar  
    28     9    22 ar  
    29     9    51 1   
    30    10    19 ar  
    31    10    23 ar  
    32    10    52 1   
    33    11    13 1   
    34    11    33 1   
    35    11    53 1   
    36    11    54 1   
    37    12    14 1   
    38    12    33 1   
    39    12    55 1   
    40    12    56 1   
    41    13    26 1   
    42    13    57 1   
    43    13    58 1   
    44    14    26 1   
    45    14    59 1   
    46    14    60 1   
    47    15    16 1   
    48    15    24 1   
    49    15    61 1   
    50    15    62 1   
    51    17    19 ar  
    52    17    25 1   
    53    18    34 1   
    54    19    26 1   
    55    20    21 1   
    56    20    27 1   
    57    20    29 2   
    58    21    28 1   
    59    21    30 2   
    60    22    23 ar  
    61    22    27 1   
    62    23    28 1   
    63    24    63 1   
    64    25    34 1   
    65    25    64 1   
    66    31    34 2   
    67    32    34 2   
@<TRIPOS>SUBSTRUCTURE
     1 UWX         1 TEMP              0 ****  ****    0 ROOT
