@<TRIPOS>MOLECULE
UWX
   64    67     1     0     0
SMALL
abcg2


@<TRIPOS>ATOM
      1 CAA         -6.1200    -1.4930     3.3950 c3         1 UWX      -0.090100
      2 CAB         -6.4700    -0.6340     1.0610 c3         1 UWX      -0.090100
      3 CAC          2.6110    -3.1530    -2.6910 c3         1 UWX       0.069300
      4 CAD          3.8670    -1.2890     2.5490 c3         1 UWX       0.074300
      5 CAI         -3.6260     1.2430     0.3230 ca         1 UWX      -0.135000
      6 CAJ         -2.6350    -0.9320     0.5020 ca         1 UWX      -0.135000
      7 CAK         -2.9100     1.4850    -0.8390 ca         1 UWX      -0.011000
      8 CAL         -1.9170    -0.7150    -0.6610 ca         1 UWX      -0.011000
      9 CAM          1.6910    -0.6730    -1.7580 ca         1 UWX      -0.130000
     10 CAN          2.2780     0.2230     0.7860 ca         1 UWX      -0.135000
     11 CAO         -0.7200     3.5410     1.5360 c6         1 UWX       0.152100
     12 CAP          1.2660     4.5880     0.9180 c6         1 UWX       0.152100
     13 CAQ         -0.0880     2.1730     1.3730 c6         1 UWX       0.137800
     14 CAR          1.9570     3.2510     0.7280 c6         1 UWX       0.137800
     15 CAS         -4.2760    -0.2280     2.2660 c3         1 UWX      -0.042100
     16 CAV         -3.4960     0.0390     1.0130 ca         1 UWX      -0.016300
     17 CAW          1.1790     0.5390    -1.3210 ca         1 UWX       0.269000
     18 CAX         -2.0570     0.5020    -1.3210 ca         1 UWX      -0.316500
     19 CAY          1.4790     1.0000    -0.0380 ca         1 UWX       0.202000
     20 CAZ          3.7390    -3.4730    -0.5730 c          1 UWX       0.488000
     21 CBA          4.0690    -2.9790     0.8270 c          1 UWX       0.487000
     22 CBB          2.4670    -1.4620    -0.9180 ca         1 UWX       0.053600
     23 CBC          2.7720    -1.0080     0.3720 ca         1 UWX       0.031600
     24 CBD         -5.4580    -1.1890     2.0560 c3         1 UWX      -0.055700
     25 NAT          0.4080     1.3610    -2.1690 nu         1 UWX      -0.838100
     26 NBE          0.9570     2.2550     0.3600 nh         1 UWX      -0.786400
     27 NBF          2.9550    -2.6910    -1.3550 n          1 UWX      -0.290000
     28 NBG          3.5660    -1.7830     1.2140 n          1 UWX      -0.290000
     29 OAE          4.1890    -4.5440    -0.9190 o          1 UWX      -0.481000
     30 OAF          4.7660    -3.6830     1.5280 o          1 UWX      -0.485000
     31 OAG         -0.8340    -0.4200    -3.4420 o          1 UWX      -0.530000
     32 OAH         -1.6240     1.9690    -3.4540 o          1 UWX      -0.530000
     33 OAU          0.2410     4.5130     1.8850 os         1 UWX      -0.446000
     34 SBH         -1.0670     0.8310    -2.7440 sy         1 UWX       1.138600
     35 H1          -6.5290    -0.5850     3.8460 hc         1 UWX       0.036033
     36 H2          -6.9410    -2.2000     3.2740 hc         1 UWX       0.036033
     37 H3          -5.4100    -1.9250     4.1020 hc         1 UWX       0.036033
     38 H4          -6.0300    -0.4770     0.0750 hc         1 UWX       0.036033
     39 H5          -7.3110    -1.3180     0.9410 hc         1 UWX       0.036033
     40 H6          -6.8690     0.3250     1.4020 hc         1 UWX       0.036033
     41 H7           3.0100    -2.4740    -3.4440 h1         1 UWX       0.062033
     42 H8           3.0350    -4.1360    -2.8510 h1         1 UWX       0.062033
     43 H9           1.5300    -3.2160    -2.8020 h1         1 UWX       0.062033
     44 H10          2.9500    -1.1580     3.1210 h1         1 UWX       0.056367
     45 H11          4.4980    -2.0030     3.0620 h1         1 UWX       0.056367
     46 H12          4.3940    -0.3370     2.4920 h1         1 UWX       0.056367
     47 H13         -4.2940     2.0070     0.7000 ha         1 UWX       0.120500
     48 H14         -2.5220    -1.8770     1.0200 ha         1 UWX       0.120500
     49 H15         -3.0210     2.4310    -1.3520 ha         1 UWX       0.137000
     50 H16         -1.2610    -1.4850    -1.0410 ha         1 UWX       0.137000
     51 H17          1.4910    -0.9880    -2.7690 ha         1 UWX       0.162000
     52 H18          2.5050     0.5920     1.7770 ha         1 UWX       0.128000
     53 H19         -1.2260     3.8170     0.5990 h1         1 UWX       0.054450
     54 H20         -1.4680     3.5170     2.3290 h1         1 UWX       0.054450
     55 H21          1.9850     5.3340     1.2600 h1         1 UWX       0.054450
     56 H22          0.8610     4.9230    -0.0480 h1         1 UWX       0.054450
     57 H23          0.3070     1.8290     2.3410 h1         1 UWX       0.049950
     58 H24         -0.8490     1.4580     1.0580 h1         1 UWX       0.049950
     59 H25          2.6960     3.3370    -0.0700 h1         1 UWX       0.049950
     60 H26          2.4920     2.9780     1.6500 h1         1 UWX       0.049950
     61 H27         -3.6080    -0.6570     3.0180 hc         1 UWX       0.051700
     62 H28         -4.6510     0.7140     2.6750 hc         1 UWX       0.051700
     63 H29         -5.0610    -2.1280     1.6550 hc         1 UWX       0.049700
     64 H30          0.3120     2.2890    -1.7510 hn         1 UWX       0.506000
@<TRIPOS>BOND
     1     1    24 1   
     2     1    35 1   
     3     1    36 1   
     4     1    37 1   
     5     2    24 1   
     6     2    38 1   
     7     2    39 1   
     8     2    40 1   
     9     3    27 1   
    10     3    41 1   
    11     3    42 1   
    12     3    43 1   
    13     4    28 1   
    14     4    44 1   
    15     4    45 1   
    16     4    46 1   
    17     5     7 ar  
    18     5    16 ar  
    19     5    47 1   
    20     6     8 ar  
    21     6    16 ar  
    22     6    48 1   
    23     7    18 ar  
    24     7    49 1   
    25     8    18 ar  
    26     8    50 1   
    27     9    17 ar  
    28     9    22 ar  
    29     9    51 1   
    30    10    19 ar  
    31    10    23 ar  
    32    10    52 1   
    33    11    13 1   
    34    11    33 1   
    35    11    53 1   
    36    11    54 1   
    37    12    14 1   
    38    12    33 1   
    39    12    55 1   
    40    12    56 1   
    41    13    26 1   
    42    13    57 1   
    43    13    58 1   
    44    14    26 1   
    45    14    59 1   
    46    14    60 1   
    47    15    16 1   
    48    15    24 1   
    49    15    61 1   
    50    15    62 1   
    51    17    19 ar  
    52    17    25 1   
    53    18    34 1   
    54    19    26 1   
    55    20    21 1   
    56    20    27 1   
    57    20    29 2   
    58    21    28 1   
    59    21    30 2   
    60    22    23 ar  
    61    22    27 1   
    62    23    28 1   
    63    24    63 1   
    64    25    34 1   
    65    25    64 1   
    66    31    34 2   
    67    32    34 2   
@<TRIPOS>SUBSTRUCTURE
     1 UWX         1 TEMP              0 ****  ****    0 ROOT
