@<TRIPOS>MOLECULE
UWY
   32    33     1     0     0
SMALL
No Charge or Current Charge


@<TRIPOS>ATOM
      1 N1         -16.8360    16.9870    26.0260 ns         1 UWY      -0.371100
      2 C4         -16.3390    17.7030    27.1020 c          1 UWY       0.607100
      3 C5         -15.6070    18.9690    26.5710 c5         1 UWY      -0.148700
      4 C6         -14.1510    19.0280    27.1020 c5         1 UWY      -0.069900
      5 C7         -13.7660    20.4730    26.6940 c5         1 UWY      -0.078900
      6 C8         -15.0550    21.3080    26.9880 c5         1 UWY      -0.078900
      7 C10        -18.0380    15.1090    24.8990 cc         1 UWY       0.202900
      8 N          -18.6270    13.9650    26.5690 na         1 UWY       0.130800
      9 C          -20.6430    13.2280    27.8790 c3         1 UWY      -0.112100
     10 O          -16.4660    17.3720    28.2740 o          1 UWY      -0.599100
     11 C1         -19.2490    12.8670    27.3300 c3         1 UWY       0.089600
     12 C2         -17.9350    15.0550    27.1100 cd         1 UWY      -0.176000
     13 C3         -17.5560    15.7930    26.0290 cc         1 UWY      -0.067400
     14 C9         -16.1880    20.2590    27.2150 c5         1 UWY      -0.069900
     15 N2         -18.6900    14.0000    25.1810 nd         1 UWY      -0.511800
     16 H1         -16.6360    17.4100    25.1270 hn         1 UWY       0.321500
     17 H2         -15.6390    19.0190    25.4750 hc         1 UWY       0.051700
     18 H3         -14.0970    18.8890    28.1890 hc         1 UWY       0.055700
     19 H4         -13.5010    18.2750    26.6400 hc         1 UWY       0.055700
     20 H5         -13.5080    20.5210    25.6290 hc         1 UWY       0.042950
     21 H6         -12.8960    20.8410    27.2490 hc         1 UWY       0.042950
     22 H7         -14.9300    21.9480    27.8700 hc         1 UWY       0.042950
     23 H8         -15.2870    21.9730    26.1480 hc         1 UWY       0.042950
     24 H9         -17.9260    15.3990    23.8620 h4         1 UWY       0.035100
     25 H10        -21.0640    12.3830    28.4360 hc         1 UWY       0.049033
     26 H11        -20.5820    14.0910    28.5530 hc         1 UWY       0.049033
     27 H12        -21.3280    13.4770    27.0590 hc         1 UWY       0.049033
     28 H13        -19.3310    11.9880    26.6790 h1         1 UWY       0.062700
     29 H14        -18.5870    12.6050    28.1640 h1         1 UWY       0.062700
     30 H15        -17.7870    15.1960    28.1740 h4         1 UWY       0.179000
     31 H16        -17.1380    20.5630    26.7600 hc         1 UWY       0.055700
     32 H17        -16.3770    20.1250    28.2880 hc         1 UWY       0.055700
@<TRIPOS>BOND
     1     1     2 1   
     2     1    13 1   
     3     1    16 1   
     4     2     3 1   
     5     2    10 2   
     6     3     4 1   
     7     3    14 1   
     8     3    17 1   
     9     4     5 1   
    10     4    18 1   
    11     4    19 1   
    12     5     6 1   
    13     5    20 1   
    14     5    21 1   
    15     6    14 1   
    16     6    22 1   
    17     6    23 1   
    18     7    13 1   
    19     7    15 2   
    20     7    24 1   
    21     8    11 1   
    22     8    12 1   
    23     8    15 1   
    24     9    11 1   
    25     9    25 1   
    26     9    26 1   
    27     9    27 1   
    28    11    28 1   
    29    11    29 1   
    30    12    13 2   
    31    12    30 1   
    32    14    31 1   
    33    14    32 1   
@<TRIPOS>SUBSTRUCTURE
     1 UWY         1 TEMP              0 ****  ****    0 ROOT
