@<TRIPOS>MOLECULE
UWY
   32    33     1     0     0
SMALL
bcc


@<TRIPOS>ATOM
      1 N1         -16.8680    17.0080    25.9020 ns         1 UWY      -0.438100
      2 C4         -16.3040    17.6960    26.9190 c          1 UWY       0.674100
      3 C5         -15.5920    18.9650    26.5190 c5         1 UWY      -0.148700
      4 C6         -14.1300    19.0070    26.9700 c5         1 UWY      -0.069900
      5 C7         -13.7540    20.4870    26.8460 c5         1 UWY      -0.078900
      6 C8         -15.0690    21.2720    27.0600 c5         1 UWY      -0.078900
      7 C10        -18.1850    15.1300    24.9560 cc         1 UWY       0.268200
      8 N          -18.5810    13.9990    26.6870 na         1 UWY       0.109400
      9 C          -20.6600    13.2160    27.7600 c3         1 UWY      -0.112100
     10 O          -16.3700    17.3180    28.0790 o          1 UWY      -0.599100
     11 C1         -19.1860    12.9620    27.4980 c3         1 UWY       0.060300
     12 C2         -17.8680    15.0550    27.1350 cd         1 UWY      -0.143300
     13 C3         -17.5840    15.8210    26.0230 cc         1 UWY      -0.132700
     14 C9         -16.1770    20.2150    27.1880 c5         1 UWY      -0.069900
     15 N2         -18.7860    14.0340    25.3820 nd         1 UWY      -0.511800
     16 H1         -16.7710    17.3780    24.9700 hn         1 UWY       0.321500
     17 H2         -15.6310    19.0940    25.4320 hc         1 UWY       0.051700
     18 H3         -14.0650    18.6800    28.0110 hc         1 UWY       0.055700
     19 H4         -13.4860    18.3530    26.3800 hc         1 UWY       0.055700
     20 H5         -13.3520    20.6880    25.8520 hc         1 UWY       0.042950
     21 H6         -12.9800    20.7670    27.5610 hc         1 UWY       0.042950
     22 H7         -15.0290    21.9040    27.9470 hc         1 UWY       0.042950
     23 H8         -15.2600    21.9340    26.2150 hc         1 UWY       0.042950
     24 H9         -18.1860    15.3950    23.9090 h4         1 UWY       0.035100
     25 H10        -21.0660    12.4190    28.3840 hc         1 UWY       0.049033
     26 H11        -20.8080    14.1610    28.2810 hc         1 UWY       0.049033
     27 H12        -21.2280    13.2390    26.8310 hc         1 UWY       0.049033
     28 H13        -19.0390    12.0100    26.9880 h1         1 UWY       0.062700
     29 H14        -18.6300    12.9180    28.4330 h1         1 UWY       0.062700
     30 H15        -17.6240    15.1700    28.1750 h4         1 UWY       0.197000
     31 H16        -17.1200    20.5270    26.7380 hc         1 UWY       0.055700
     32 H17        -16.3730    19.9970    28.2400 hc         1 UWY       0.055700
@<TRIPOS>BOND
     1     1     2 1   
     2     1    13 1   
     3     1    16 1   
     4     2     3 1   
     5     2    10 2   
     6     3     4 1   
     7     3    14 1   
     8     3    17 1   
     9     4     5 1   
    10     4    18 1   
    11     4    19 1   
    12     5     6 1   
    13     5    20 1   
    14     5    21 1   
    15     6    14 1   
    16     6    22 1   
    17     6    23 1   
    18     7    13 1   
    19     7    15 2   
    20     7    24 1   
    21     8    11 1   
    22     8    12 1   
    23     8    15 1   
    24     9    11 1   
    25     9    25 1   
    26     9    26 1   
    27     9    27 1   
    28    11    28 1   
    29    11    29 1   
    30    12    13 2   
    31    12    30 1   
    32    14    31 1   
    33    14    32 1   
@<TRIPOS>SUBSTRUCTURE
     1 UWY         1 TEMP              0 ****  ****    0 ROOT
