@<TRIPOS>MOLECULE
UWZ
   54    56     1     0     0
SMALL
bcc


@<TRIPOS>ATOM
      1 F1          18.3830    19.9560    55.8550 f          1 UWZ      -0.254300
      2 C16         17.7820    19.3500    54.8060 c3         1 UWZ       0.615700
      3 F           18.6610    18.4190    54.3580 f          1 UWZ      -0.254300
      4 O2          16.5990    18.7980    55.1560 os         1 UWZ      -0.381900
      5 C12         16.4210    18.0040    56.2700 ca         1 UWZ       0.122100
      6 C11         17.4220    17.2430    56.8550 ca         1 UWZ      -0.174000
      7 C10         17.1200    16.4620    57.9640 ca         1 UWZ      -0.107000
      8 C13         15.1170    17.9970    56.7680 ca         1 UWZ      -0.097300
      9 C14         14.8420    17.1990    57.8690 ca         1 UWZ      -0.089000
     10 C9          15.8330    16.4360    58.4720 ca         1 UWZ      -0.143000
     11 C15         14.0650    18.8650    56.1180 c3         1 UWZ       0.169300
     12 N4          12.7160    18.6190    56.5910 n          1 UWZ      -0.480800
     13 C18         12.0070    17.5060    55.9980 c3         1 UWZ       0.008000
     14 C17         10.9690    17.8480    54.9370 c          1 UWZ       0.659100
     15 N3          11.0390    19.0580    54.3750 ns         1 UWZ      -0.567900
     16 C19         10.1270    19.4720    53.3340 c3         1 UWZ       0.095300
     17 O3          10.1520    17.0030    54.5980 o          1 UWZ      -0.605100
     18 C4          12.0270    19.3610    57.4980 c          1 UWZ       0.605600
     19 O1          10.8290    19.1780    57.6700 o          1 UWZ      -0.592100
     20 C2          12.7130    20.3850    58.3070 cc         1 UWZ       0.225800
     21 C1          12.0450    21.3590    59.0170 cd         1 UWZ      -0.167600
     22 N           13.0000    22.0370    59.6770 na         1 UWZ      -0.255900
     23 N1          14.0480    20.4760    58.5480 nc         1 UWZ      -0.638000
     24 C           14.1990    21.4740    59.3790 cd         1 UWZ       0.346000
     25 C3          15.4250    22.0490    59.9830 c          1 UWZ       0.606600
     26 O           15.3080    23.0820    60.6400 o          1 UWZ      -0.633100
     27 N2          16.5960    21.4390    59.7880 n          1 UWZ      -0.452800
     28 C8          17.8220    22.0440    60.3090 c5         1 UWZ       0.103500
     29 C7          18.9270    21.2210    59.6600 c5         1 UWZ      -0.094900
     30 C6          18.2890    19.8460    59.5080 c5         1 UWZ      -0.094900
     31 C5          16.8560    20.1680    59.1080 c5         1 UWZ       0.103500
     32 H1          17.5990    20.0750    54.0150 h3         1 UWZ       0.106700
     33 H2          18.4300    17.2290    56.4670 ha         1 UWZ       0.151000
     34 H3          17.9020    15.8720    58.4220 ha         1 UWZ       0.136000
     35 H4          13.8390    17.1800    58.2760 ha         1 UWZ       0.146000
     36 H5          15.5960    15.8270    59.3340 ha         1 UWZ       0.139000
     37 H6          14.0620    18.6960    55.0390 h1         1 UWZ       0.069700
     38 H7          14.3190    19.9140    56.2530 h1         1 UWZ       0.069700
     39 H8          11.5030    16.9150    56.7630 h1         1 UWZ       0.084200
     40 H9          12.7400    16.8440    55.5310 h1         1 UWZ       0.084200
     41 H10         11.7210    19.7230    54.6990 hn         1 UWZ       0.316500
     42 H11         10.3740    20.4890    53.0430 h1         1 UWZ       0.039033
     43 H12         10.2090    18.8340    52.4530 h1         1 UWZ       0.039033
     44 H13          9.0910    19.4540    53.6740 h1         1 UWZ       0.039033
     45 H14         11.0000    21.6070    59.0910 h4         1 UWZ       0.199000
     46 H15         12.8610    22.8280    60.2880 hn         1 UWZ       0.331700
     47 H17         17.8750    23.1020    60.0530 h1         1 UWZ       0.061450
     48 H18         17.8530    21.9630    61.3990 h1         1 UWZ       0.061450
     49 H19         19.8370    21.2150    60.2570 hc         1 UWZ       0.056700
     50 H20         19.1730    21.6310    58.6780 hc         1 UWZ       0.056700
     51 H21         18.3030    19.3120    60.4610 hc         1 UWZ       0.056700
     52 H22         18.7810    19.2160    58.7690 hc         1 UWZ       0.056700
     53 H23         16.1510    19.3990    59.4130 h1         1 UWZ       0.061450
     54 H24         16.7640    20.2870    58.0280 h1         1 UWZ       0.061450
@<TRIPOS>BOND
     1     1     2 1   
     2     2     3 1   
     3     2     4 1   
     4     2    32 1   
     5     4     5 1   
     6     5     6 ar  
     7     5     8 ar  
     8     6     7 ar  
     9     6    33 1   
    10     7    10 ar  
    11     7    34 1   
    12     8     9 ar  
    13     8    11 1   
    14     9    10 ar  
    15     9    35 1   
    16    10    36 1   
    17    11    12 1   
    18    11    37 1   
    19    11    38 1   
    20    12    13 1   
    21    12    18 1   
    22    13    14 1   
    23    13    39 1   
    24    13    40 1   
    25    14    15 1   
    26    14    17 2   
    27    15    16 1   
    28    15    41 1   
    29    16    42 1   
    30    16    43 1   
    31    16    44 1   
    32    18    19 2   
    33    18    20 1   
    34    20    21 2   
    35    20    23 1   
    36    21    22 1   
    37    21    45 1   
    38    22    24 1   
    39    22    46 1   
    40    23    24 2   
    41    24    25 1   
    42    25    26 2   
    43    25    27 1   
    44    27    28 1   
    45    27    31 1   
    46    28    29 1   
    47    28    47 1   
    48    28    48 1   
    49    29    30 1   
    50    29    49 1   
    51    29    50 1   
    52    30    31 1   
    53    30    51 1   
    54    30    52 1   
    55    31    53 1   
    56    31    54 1   
@<TRIPOS>SUBSTRUCTURE
     1 UWZ         1 TEMP              0 ****  ****    0 ROOT
