@<TRIPOS>MOLECULE
UWZ
   54    56     1     0     0
SMALL
No Charge or Current Charge


@<TRIPOS>ATOM
      1 F1          18.8670    19.3320    55.4720 f          1 UWZ      -0.133000
      2 C16         17.9230    18.8190    54.6500 c3         1 UWZ       0.396300
      3 F           18.3570    17.6020    54.2460 f          1 UWZ      -0.133000
      4 O2          16.6410    18.7290    55.3090 os         1 UWZ      -0.405100
      5 C12         16.3890    17.9810    56.4490 ca         1 UWZ       0.122100
      6 C11         17.3900    17.2240    57.1030 ca         1 UWZ      -0.156000
      7 C10         17.0840    16.4960    58.2640 ca         1 UWZ      -0.089000
      8 C13         15.0740    17.9950    56.9680 ca         1 UWZ      -0.097300
      9 C14         14.7790    17.2570    58.1360 ca         1 UWZ      -0.071000
     10 C9          15.7810    16.5130    58.7800 ca         1 UWZ      -0.125000
     11 C15         13.9990    18.8240    56.2560 c3         1 UWZ       0.169300
     12 N4          12.5920    18.5410    56.6400 n          1 UWZ      -0.413800
     13 C18         11.9140    17.4490    55.8680 c3         1 UWZ       0.008000
     14 C17         11.1350    17.8800    54.6050 c          1 UWZ       0.592100
     15 N3          11.1610    19.2260    54.3060 ns         1 UWZ      -0.500900
     16 C19         10.4930    19.8350    53.1550 c3         1 UWZ       0.095300
     17 O3          10.5360    17.0780    53.9020 o          1 UWZ      -0.605100
     18 C4          11.8550    19.2780    57.6180 c          1 UWZ       0.538600
     19 O1          10.6400    19.1090    57.6880 o          1 UWZ      -0.592100
     20 C2          12.5640    20.2440    58.5520 cc         1 UWZ       0.160500
     21 C1          11.8430    21.0110    59.4300 cd         1 UWZ      -0.135000
     22 N           12.7810    21.7550    60.1280 na         1 UWZ      -0.255500
     23 N1          13.9100    20.4890    58.7160 nc         1 UWZ      -0.638000
     24 C           14.0460    21.4020    59.6810 cd         1 UWZ       0.346000
     25 C3          15.3350    22.0120    60.2280 c          1 UWZ       0.539600
     26 O           15.3080    22.9130    61.0670 o          1 UWZ      -0.633100
     27 N2          16.5960    21.5390    59.7650 n          1 UWZ      -0.385800
     28 C8          17.8660    22.1610    60.2010 c5         1 UWZ       0.103500
     29 C7          18.8750    21.5590    59.1920 c5         1 UWZ      -0.094900
     30 C6          18.3380    20.1170    59.0500 c5         1 UWZ      -0.094900
     31 C5          16.8140    20.3590    58.8960 c5         1 UWZ       0.103500
     32 H1          17.8470    19.4650    53.7690 h3         1 UWZ       0.106700
     33 H2          18.4100    17.1900    56.7340 ha         1 UWZ       0.133000
     34 H3          17.8590    15.9200    58.7650 ha         1 UWZ       0.118000
     35 H4          13.7770    17.2600    58.5570 ha         1 UWZ       0.128000
     36 H5          15.5450    15.9500    59.6800 ha         1 UWZ       0.121000
     37 H6          14.0890    18.6200    55.1810 h1         1 UWZ       0.069700
     38 H7          14.2180    19.8930    56.3560 h1         1 UWZ       0.069700
     39 H8          11.2080    16.9240    56.5230 h1         1 UWZ       0.084200
     40 H9          12.6650    16.7170    55.5470 h1         1 UWZ       0.084200
     41 H10         11.6680    19.8210    54.9500 hn         1 UWZ       0.316500
     42 H11         10.6740    20.9170    53.1560 h1         1 UWZ       0.039033
     43 H12         10.8890    19.4030    52.2270 h1         1 UWZ       0.039033
     44 H13          9.4130    19.6490    53.2140 h1         1 UWZ       0.039033
     45 H14         10.7720    21.0790    59.5940 h4         1 UWZ       0.181000
     46 H15         12.6000    22.4380    60.8550 hn         1 UWZ       0.382000
     47 H17         17.8360    23.2580    60.1450 h1         1 UWZ       0.061450
     48 H18         18.1040    21.8710    61.2330 h1         1 UWZ       0.061450
     49 H19         19.9070    21.5980    59.5560 hc         1 UWZ       0.056700
     50 H20         18.8420    22.0910    58.2330 hc         1 UWZ       0.056700
     51 H21         18.5530    19.5240    59.9480 hc         1 UWZ       0.056700
     52 H22         18.7680    19.5830    58.1960 hc         1 UWZ       0.056700
     53 H23         16.2450    19.4800    59.2260 h1         1 UWZ       0.061450
     54 H24         16.5480    20.5860    57.8550 h1         1 UWZ       0.061450
@<TRIPOS>BOND
     1     1     2 1   
     2     2     3 1   
     3     2     4 1   
     4     2    32 1   
     5     4     5 1   
     6     5     6 ar  
     7     5     8 ar  
     8     6     7 ar  
     9     6    33 1   
    10     7    10 ar  
    11     7    34 1   
    12     8     9 ar  
    13     8    11 1   
    14     9    10 ar  
    15     9    35 1   
    16    10    36 1   
    17    11    12 1   
    18    11    37 1   
    19    11    38 1   
    20    12    13 1   
    21    12    18 1   
    22    13    14 1   
    23    13    39 1   
    24    13    40 1   
    25    14    15 1   
    26    14    17 2   
    27    15    16 1   
    28    15    41 1   
    29    16    42 1   
    30    16    43 1   
    31    16    44 1   
    32    18    19 2   
    33    18    20 1   
    34    20    21 2   
    35    20    23 1   
    36    21    22 1   
    37    21    45 1   
    38    22    24 1   
    39    22    46 1   
    40    23    24 2   
    41    24    25 1   
    42    25    26 2   
    43    25    27 1   
    44    27    28 1   
    45    27    31 1   
    46    28    29 1   
    47    28    47 1   
    48    28    48 1   
    49    29    30 1   
    50    29    49 1   
    51    29    50 1   
    52    30    31 1   
    53    30    51 1   
    54    30    52 1   
    55    31    53 1   
    56    31    54 1   
@<TRIPOS>SUBSTRUCTURE
     1 UWZ         1 TEMP              0 ****  ****    0 ROOT
