@<TRIPOS>MOLECULE
UX0
   41    43     1     0     0
SMALL
abcg2


@<TRIPOS>ATOM
      1 O2          -1.6080     1.6360    -1.8670 oh         1 UX0      -0.635000
      2 C1          -2.1700     0.5750    -1.1440 c5         1 UX0       0.105300
      3 C2          -3.6310     0.7900    -0.7330 c5         1 UX0       0.139300
      4 O1          -3.8340     2.1090    -0.2790 oh         1 UX0      -0.651000
      5 C3          -3.8340    -0.1830     0.4440 c5         1 UX0      -0.069700
      6 C5          -4.6990    -1.3630     0.0440 c3         1 UX0       0.169600
      7 O           -4.8250    -2.2280     1.1490 oh         1 UX0      -0.657000
      8 C4          -2.4180    -0.6000     0.9000 c5         1 UX0      -0.079400
      9 C           -1.4770     0.3790     0.2000 c5         1 UX0       0.232500
     10 N           -0.1260    -0.1060     0.0980 nu         1 UX0      -0.906100
     11 C6           0.9730     0.6170     0.3350 ca         1 UX0       0.433900
     12 C9           2.3030     0.0690     0.1740 ca         1 UX0      -0.207000
     13 C10          2.6180    -1.2520    -0.2520 ca         1 UX0       0.188100
     14 O3           1.5840    -2.0660    -0.5240 os         1 UX0      -0.374100
     15 C14          1.8350    -3.3900    -0.9670 c3         1 UX0       0.155900
     16 C11          3.9330    -1.6510    -0.3710 ca         1 UX0      -0.235000
     17 C12          4.9660    -0.7550    -0.0700 ca         1 UX0      -0.045000
     18 C13          4.7010     0.5220     0.3460 ca         1 UX0      -0.139000
     19 C8           3.3670     0.9530     0.4740 ca         1 UX0       0.085000
     20 N2           3.1510     2.2300     0.8920 nb         1 UX0      -0.229000
     21 C7           1.9040     2.5910     0.9990 ca         1 UX0       0.183900
     22 N1           0.8150     1.8690     0.7440 nb         1 UX0      -0.296000
     23 H2          -1.8850     1.5620    -2.7850 ho         1 UX0       0.442000
     24 H1          -2.1080    -0.3690    -1.7060 h1         1 UX0       0.032700
     25 HA          -4.3110     0.5620    -1.5680 h1         1 UX0       0.034700
     26 H           -1.4560     1.3290     0.7320 h1         1 UX0       0.120700
     27 HB          -3.4200     2.7010    -0.9180 ho         1 UX0       0.459000
     28 H3          -4.3430     0.3590     1.2460 hc         1 UX0       0.092700
     29 H51C        -5.6780    -0.9940    -0.2900 h1         1 UX0       0.017200
     30 H52C        -4.2420    -1.8730    -0.8160 h1         1 UX0       0.017200
     31 H41C        -2.2990    -0.5850     1.9820 hc         1 UX0       0.058200
     32 H42C        -2.1960    -1.6190     0.5660 hc         1 UX0       0.058200
     33 HC          -5.3010    -3.0130     0.8630 ho         1 UX0       0.444000
     34 HD           0.0050    -1.0540    -0.2170 hn         1 UX0       0.509000
     35 H11          4.1880    -2.6490    -0.6950 ha         1 UX0       0.117000
     36 H141         2.3850    -3.9640    -0.2190 h1         1 UX0       0.045033
     37 H142         0.8630    -3.8480    -1.1240 h1         1 UX0       0.045033
     38 H143         2.3900    -3.3980    -1.9070 h1         1 UX0       0.045033
     39 H12          5.9900    -1.0900    -0.1710 ha         1 UX0       0.114000
     40 H13          5.4950     1.2170     0.5800 ha         1 UX0       0.136000
     41 H7           1.7180     3.6080     1.3350 h5         1 UX0       0.042100
@<TRIPOS>BOND
     1     1     2 1   
     2     1    23 1   
     3     2     3 1   
     4     2     9 1   
     5     2    24 1   
     6     3     4 1   
     7     3     5 1   
     8     3    25 1   
     9     4    27 1   
    10     5     6 1   
    11     5     8 1   
    12     5    28 1   
    13     6     7 1   
    14     6    29 1   
    15     6    30 1   
    16     7    33 1   
    17     8     9 1   
    18     8    31 1   
    19     8    32 1   
    20     9    10 1   
    21     9    26 1   
    22    10    11 1   
    23    10    34 1   
    24    11    12 ar  
    25    11    22 ar  
    26    12    13 ar  
    27    12    19 ar  
    28    13    14 1   
    29    13    16 ar  
    30    14    15 1   
    31    15    36 1   
    32    15    37 1   
    33    15    38 1   
    34    16    17 ar  
    35    16    35 1   
    36    17    18 ar  
    37    17    39 1   
    38    18    19 ar  
    39    18    40 1   
    40    19    20 ar  
    41    20    21 ar  
    42    21    22 ar  
    43    21    41 1   
@<TRIPOS>SUBSTRUCTURE
     1 UX0         1 TEMP              0 ****  ****    0 ROOT
