@<TRIPOS>MOLECULE
UX0
   41    43     1     0     0
SMALL
No Charge or Current Charge


@<TRIPOS>ATOM
      1 O2          -0.6850     0.9540    -1.6530 oh         1 UX0      -0.635000
      2 C1          -1.4780     0.0430    -0.8700 c5         1 UX0       0.105300
      3 C2          -3.0110     0.2020    -1.1540 c5         1 UX0       0.139300
      4 O1          -3.3070     1.5560    -1.4910 oh         1 UX0      -0.651000
      5 C3          -3.7110    -0.2110     0.1950 c5         1 UX0      -0.069700
      6 C5          -4.8510    -1.2410     0.0180 c3         1 UX0       0.169600
      7 O           -5.4630    -1.5300     1.2800 oh         1 UX0      -0.657000
      8 C4          -2.5380    -0.6870     1.1100 c5         1 UX0      -0.079400
      9 C           -1.4270     0.2940     0.6710 c5         1 UX0       0.232500
     10 N           -0.1630    -0.3300     1.1760 nu         1 UX0      -0.906100
     11 C6           0.9250     0.5360     1.0970 ca         1 UX0       0.433900
     12 C9           2.1050     0.2240     0.3690 ca         1 UX0      -0.207000
     13 C10          2.3060    -0.9870    -0.3530 ca         1 UX0       0.188100
     14 O3           1.3210    -1.9600    -0.3710 os         1 UX0      -0.374100
     15 C14          1.4510    -3.1960    -1.0980 c3         1 UX0       0.155900
     16 C11          3.5180    -1.1870    -1.0490 ca         1 UX0      -0.235000
     17 C12          4.5210    -0.2100    -1.0330 ca         1 UX0      -0.045000
     18 C13          4.3250     0.9770    -0.3200 ca         1 UX0      -0.139000
     19 C8           3.1320     1.2070     0.3830 ca         1 UX0       0.085000
     20 N2           2.9800     2.3620     1.0620 nb         1 UX0      -0.229000
     21 C7           1.8250     2.5450     1.7250 ca         1 UX0       0.183900
     22 N1           0.7930     1.6890     1.7780 nb         1 UX0      -0.296000
     23 H2           0.2540     0.7210    -1.4870 ho         1 UX0       0.442000
     24 H1          -1.1800    -0.9890    -1.1020 h1         1 UX0       0.032700
     25 HA          -3.3070    -0.4620    -1.9780 h1         1 UX0       0.034700
     26 H           -1.6300     1.3350     0.9720 h1         1 UX0       0.120700
     27 HB          -2.4470     1.8990    -1.8340 ho         1 UX0       0.459000
     28 H3          -4.1820     0.6710     0.6470 hc         1 UX0       0.092700
     29 H51C        -5.5960    -0.8310    -0.6780 h1         1 UX0       0.017200
     30 H52C        -4.4420    -2.1580    -0.4270 h1         1 UX0       0.017200
     31 H41C        -2.7760    -0.5980     2.1760 hc         1 UX0       0.058200
     32 H42C        -2.2790    -1.7360     0.9170 hc         1 UX0       0.058200
     33 HC          -6.1790    -2.1820     1.1070 ho         1 UX0       0.444000
     34 HD           0.0940    -1.2420     0.7930 hn         1 UX0       0.509000
     35 H11          3.7060    -2.0970    -1.6110 ha         1 UX0       0.117000
     36 H141         2.3060    -3.7770    -0.7310 h1         1 UX0       0.045033
     37 H142         0.5480    -3.8060    -0.9730 h1         1 UX0       0.045033
     38 H143         1.5860    -3.0050    -2.1710 h1         1 UX0       0.045033
     39 H12          5.4520    -0.3730    -1.5730 ha         1 UX0       0.114000
     40 H13          5.1110     1.7300    -0.3100 ha         1 UX0       0.136000
     41 H7           1.7170     3.4790     2.2720 h5         1 UX0       0.042100
@<TRIPOS>BOND
     1     1     2 1   
     2     1    23 1   
     3     2     3 1   
     4     2     9 1   
     5     2    24 1   
     6     3     4 1   
     7     3     5 1   
     8     3    25 1   
     9     4    27 1   
    10     5     6 1   
    11     5     8 1   
    12     5    28 1   
    13     6     7 1   
    14     6    29 1   
    15     6    30 1   
    16     7    33 1   
    17     8     9 1   
    18     8    31 1   
    19     8    32 1   
    20     9    10 1   
    21     9    26 1   
    22    10    11 1   
    23    10    34 1   
    24    11    12 ar  
    25    11    22 ar  
    26    12    13 ar  
    27    12    19 ar  
    28    13    14 1   
    29    13    16 ar  
    30    14    15 1   
    31    15    36 1   
    32    15    37 1   
    33    15    38 1   
    34    16    17 ar  
    35    16    35 1   
    36    17    18 ar  
    37    17    39 1   
    38    18    19 ar  
    39    18    40 1   
    40    19    20 ar  
    41    20    21 ar  
    42    21    22 ar  
    43    21    41 1   
@<TRIPOS>SUBSTRUCTURE
     1 UX0         1 TEMP              0 ****  ****    0 ROOT
