@<TRIPOS>MOLECULE
UX1
   29    30     1     0     0
SMALL
No Charge or Current Charge


@<TRIPOS>ATOM
      1 C4         -20.1190    16.8010    27.3250 ca         1 UX1      -0.121300
      2 C5         -21.4270    16.7480    27.8480 ca         1 UX1      -0.078000
      3 C6         -22.4380    17.5720    27.3230 ca         1 UX1      -0.122000
      4 C7         -22.1520    18.4570    26.2700 ca         1 UX1      -0.086000
      5 C8         -20.8510    18.5170    25.7430 ca         1 UX1      -0.145000
      6 C10        -20.0060    13.4510    27.7660 cx         1 UX1      -0.095400
      7 N          -17.3460    14.6220    25.5250 ns         1 UX1      -0.501900
      8 C          -16.7700    14.6550    24.1810 c3         1 UX1       0.097300
      9 O          -19.5250    14.3640    24.9100 o          1 UX1      -0.621100
     10 C1         -18.6870    14.4890    25.7910 c          1 UX1       0.627100
     11 C11        -18.5360    13.3200    28.0840 cx         1 UX1      -0.095400
     12 C2         -19.0290    14.5030    27.2680 cx         1 UX1      -0.230000
     13 C3         -19.0350    15.8950    27.9070 c3         1 UX1       0.006900
     14 C9         -19.8410    17.6950    26.2670 ca         1 UX1       0.154000
     15 F          -18.5970    17.7730    25.7430 f          1 UX1      -0.190000
     16 H1         -21.6620    16.0670    28.6630 ha         1 UX1       0.128000
     17 H2         -23.4450    17.5240    27.7320 ha         1 UX1       0.121000
     18 H3         -22.9360    19.0940    25.8640 ha         1 UX1       0.119000
     19 H4         -20.6230    19.2000    24.9280 ha         1 UX1       0.133000
     20 H5         -20.6750    13.7130    28.5820 hc         1 UX1       0.084200
     21 H6         -20.4300    12.7590    27.0420 hc         1 UX1       0.084200
     22 H7         -16.7320    14.7150    26.3250 hn         1 UX1       0.320500
     23 H8         -15.6810    14.7710    24.2510 h1         1 UX1       0.040700
     24 H9         -17.0030    13.7200    23.6560 h1         1 UX1       0.040700
     25 H10        -17.1890    15.5020    23.6210 h1         1 UX1       0.040700
     26 H11        -17.9810    12.5350    27.5740 hc         1 UX1       0.084200
     27 H12        -18.2250    13.4940    29.1110 hc         1 UX1       0.084200
     28 H13        -18.0460    16.3570    27.7940 hc         1 UX1       0.060700
     29 H14        -19.1830    15.8080    28.9910 hc         1 UX1       0.060700
@<TRIPOS>BOND
     1     1     2 ar  
     2     1    13 1   
     3     1    14 ar  
     4     2     3 ar  
     5     2    16 1   
     6     3     4 ar  
     7     3    17 1   
     8     4     5 ar  
     9     4    18 1   
    10     5    14 ar  
    11     5    19 1   
    12     6    11 1   
    13     6    12 1   
    14     6    20 1   
    15     6    21 1   
    16     7     8 1   
    17     7    10 1   
    18     7    22 1   
    19     8    23 1   
    20     8    24 1   
    21     8    25 1   
    22     9    10 2   
    23    10    12 1   
    24    11    12 1   
    25    11    26 1   
    26    11    27 1   
    27    12    13 1   
    28    13    28 1   
    29    13    29 1   
    30    14    15 1   
@<TRIPOS>SUBSTRUCTURE
     1 UX1         1 TEMP              0 ****  ****    0 ROOT
