@<TRIPOS>MOLECULE
UX1
   29    30     1     0     0
SMALL
abcg2


@<TRIPOS>ATOM
      1 C4         -19.7700    16.7710    27.2390 ca         1 UX1      -0.121300
      2 C5         -20.9820    16.3740    26.6710 ca         1 UX1      -0.078000
      3 C6         -21.8750    17.2990    26.1410 ca         1 UX1      -0.122000
      4 C7         -21.5720    18.6560    26.1630 ca         1 UX1      -0.086000
      5 C8         -20.3710    19.0850    26.7190 ca         1 UX1      -0.145000
      6 C10        -19.9480    13.5360    28.2530 cx         1 UX1      -0.095400
      7 N          -18.1870    14.8460    25.2090 ns         1 UX1      -0.501900
      8 C          -17.9340    14.5690    23.8070 c3         1 UX1       0.097300
      9 O          -19.1030    12.8300    25.6160 o          1 UX1      -0.621100
     10 C1         -18.7660    13.9470    26.0250 c          1 UX1       0.627100
     11 C11        -18.4880    13.3140    28.4660 cx         1 UX1      -0.095400
     12 C2         -18.9540    14.3550    27.4600 cx         1 UX1      -0.230000
     13 C3         -18.7730    15.8090    27.8450 c3         1 UX1       0.006900
     14 C9         -19.5100    18.1370    27.2390 ca         1 UX1       0.154000
     15 F          -18.3370    18.5700    27.7810 f          1 UX1      -0.190000
     16 H1         -21.2280    15.3220    26.6420 ha         1 UX1       0.128000
     17 H2         -22.8050    16.9580    25.7070 ha         1 UX1       0.121000
     18 H3         -22.2610    19.3810    25.7500 ha         1 UX1       0.119000
     19 H4         -20.0990    20.1320    26.7530 ha         1 UX1       0.133000
     20 H5         -20.5030    14.0680    29.0140 hc         1 UX1       0.084200
     21 H6         -20.4990    12.7800    27.7120 hc         1 UX1       0.084200
     22 H7         -17.9240    15.7480    25.5650 hn         1 UX1       0.320500
     23 H8         -17.4830    15.4520    23.3600 h1         1 UX1       0.040700
     24 H9         -17.2540    13.7240    23.6900 h1         1 UX1       0.040700
     25 H10        -18.8620    14.3380    23.2820 h1         1 UX1       0.040700
     26 H11        -18.0520    12.4110    28.0620 hc         1 UX1       0.084200
     27 H12        -18.0290    13.6900    29.3700 hc         1 UX1       0.084200
     28 H13        -17.7580    16.1410    27.6090 hc         1 UX1       0.060700
     29 H14        -18.8410    15.8790    28.9340 hc         1 UX1       0.060700
@<TRIPOS>BOND
     1     1     2 ar  
     2     1    13 1   
     3     1    14 ar  
     4     2     3 ar  
     5     2    16 1   
     6     3     4 ar  
     7     3    17 1   
     8     4     5 ar  
     9     4    18 1   
    10     5    14 ar  
    11     5    19 1   
    12     6    11 1   
    13     6    12 1   
    14     6    20 1   
    15     6    21 1   
    16     7     8 1   
    17     7    10 1   
    18     7    22 1   
    19     8    23 1   
    20     8    24 1   
    21     8    25 1   
    22     9    10 2   
    23    10    12 1   
    24    11    12 1   
    25    11    26 1   
    26    11    27 1   
    27    12    13 1   
    28    13    28 1   
    29    13    29 1   
    30    14    15 1   
@<TRIPOS>SUBSTRUCTURE
     1 UX1         1 TEMP              0 ****  ****    0 ROOT
