@<TRIPOS>MOLECULE
UX2
   28    31     1     0     0
SMALL
No Charge or Current Charge


@<TRIPOS>ATOM
      1 C10          2.2710    -6.5440   -19.4160 ca         1 UX2      -0.105000
      2 C02          0.6290    -7.3820   -17.3450 cc         1 UX2       0.840400
      3 C04          1.7400    -5.6660   -18.4490 ca         1 UX2       0.335000
      4 C05          2.0640    -4.3000   -18.5360 ca         1 UX2      -0.103000
      5 C06          2.9000    -3.8190   -19.5620 ca         1 UX2      -0.065000
      6 C07          3.4210    -4.7070   -20.5170 ca         1 UX2       0.092000
      7 C09          3.1070    -6.0730   -20.4480 ca         1 UX2      -0.029000
      8 C11          1.9030    -7.9240   -19.2910 cc         1 UX2       0.009000
      9 C13          1.5250   -10.0200   -19.4100 cd         1 UX2       0.505300
     10 C16          1.5730   -11.3820   -19.8970 cd         1 UX2       0.110700
     11 C17          0.9220   -12.4340   -19.3100 cc         1 UX2      -0.129000
     12 C18          1.2370   -13.5590   -20.0980 cc         1 UX2      -0.197000
     13 C19          2.0540   -13.1180   -21.1070 cd         1 UX2       0.145900
     14 N01         -0.1780    -7.7600   -16.3530 nv         1 UX2      -1.074900
     15 N03          0.8940    -6.0780   -17.3910 nd         1 UX2      -0.791000
     16 N12          2.2010    -8.9670   -20.0330 nd         1 UX2      -0.370300
     17 N14          0.8260    -9.6690   -18.3230 nc         1 UX2      -0.582100
     18 N15          1.1050    -8.3320   -18.2890 na         1 UX2       0.012900
     19 O20          2.2870   -11.7630   -21.0150 os         1 UX2      -0.216000
     20 Cl8          4.4630    -4.1070   -21.8010 cl         1 UX2      -0.201000
     21 H1           1.6640    -3.6080   -17.8010 ha         1 UX2       0.137000
     22 H2           3.1420    -2.7600   -19.6170 ha         1 UX2       0.134000
     23 H3           3.5090    -6.7590   -21.1890 ha         1 UX2       0.152000
     24 H4           0.2930   -12.4200   -18.4240 ha         1 UX2       0.149000
     25 H5           0.8930   -14.5750   -19.9300 ha         1 UX2       0.145000
     26 H6           2.5200   -13.6520   -21.9250 h4         1 UX2       0.057100
     27 H7          -0.7640    -7.0090   -16.0170 hn         1 UX2       0.520000
     28 H8          -0.6390    -8.6460   -16.5190 hn         1 UX2       0.520000
@<TRIPOS>BOND
     1     1     3 ar  
     2     1     7 ar  
     3     1     8 1   
     4     2    14 1   
     5     2    15 2   
     6     2    18 1   
     7     3     4 ar  
     8     3    15 1   
     9     4     5 ar  
    10     4    21 1   
    11     5     6 ar  
    12     5    22 1   
    13     6     7 ar  
    14     6    20 1   
    15     7    23 1   
    16     8    16 2   
    17     8    18 1   
    18     9    10 1   
    19     9    16 1   
    20     9    17 2   
    21    10    11 2   
    22    10    19 1   
    23    11    12 1   
    24    11    24 1   
    25    12    13 2   
    26    12    25 1   
    27    13    19 1   
    28    13    26 1   
    29    14    27 1   
    30    14    28 1   
    31    17    18 1   
@<TRIPOS>SUBSTRUCTURE
     1 UX2         1 TEMP              0 ****  ****    0 ROOT
