@<TRIPOS>MOLECULE
UX2
   28    31     1     0     0
SMALL
abcg2


@<TRIPOS>ATOM
      1 C10          2.2720    -6.5440   -19.4640 ca         1 UX2      -0.105000
      2 C02          0.5570    -7.3180   -17.3940 cc         1 UX2       0.840400
      3 C04          1.7260    -5.6570   -18.5000 ca         1 UX2       0.335000
      4 C05          2.0750    -4.2950   -18.5880 ca         1 UX2      -0.103000
      5 C06          2.9220    -3.8440   -19.5760 ca         1 UX2      -0.065000
      6 C07          3.4470    -4.7470   -20.5110 ca         1 UX2       0.092000
      7 C09          3.1340    -6.0850   -20.4690 ca         1 UX2      -0.029000
      8 C11          1.8850    -7.9100   -19.3340 cc         1 UX2       0.009000
      9 C13          1.4760    -9.9840   -19.3760 cd         1 UX2       0.505300
     10 C16          1.4840   -11.3680   -19.7820 cd         1 UX2       0.110700
     11 C17          0.8930   -12.4870   -19.2700 cc         1 UX2      -0.129000
     12 C18          1.2720   -13.5680   -20.1200 cc         1 UX2      -0.197000
     13 C19          2.0630   -13.0340   -21.0870 cd         1 UX2       0.145900
     14 N01         -0.2280    -7.8030   -16.4220 nv         1 UX2      -1.074900
     15 N03          0.8820    -6.0620   -17.4950 nd         1 UX2      -0.791000
     16 N12          2.1690    -9.0040   -20.0270 nd         1 UX2      -0.370300
     17 N14          0.7780    -9.5710   -18.3200 nc         1 UX2      -0.582100
     18 N15          1.0480    -8.2400   -18.3040 na         1 UX2       0.012900
     19 O20          2.2040   -11.6950   -20.8980 os         1 UX2      -0.216000
     20 CL8          4.5250    -4.1490   -21.7530 cl         1 UX2      -0.201000
     21 H1           1.6660    -3.6070   -17.8610 ha         1 UX2       0.137000
     22 H2           3.1850    -2.7960   -19.6350 ha         1 UX2       0.134000
     23 H3           3.5390    -6.7780   -21.1920 ha         1 UX2       0.152000
     24 H4           0.2670   -12.5290   -18.3950 ha         1 UX2       0.149000
     25 H5           0.9910   -14.6030   -20.0220 ha         1 UX2       0.145000
     26 H6           2.5770   -13.4470   -21.9380 h4         1 UX2       0.057100
     27 H7          -0.6910    -7.1520   -15.8090 hn         1 UX2       0.520000
     28 H8          -0.5560    -8.7540   -16.4690 hn         1 UX2       0.520000
@<TRIPOS>BOND
     1     1     3 ar  
     2     1     7 ar  
     3     1     8 1   
     4     2    14 1   
     5     2    15 2   
     6     2    18 1   
     7     3     4 ar  
     8     3    15 1   
     9     4     5 ar  
    10     4    21 1   
    11     5     6 ar  
    12     5    22 1   
    13     6     7 ar  
    14     6    20 1   
    15     7    23 1   
    16     8    16 2   
    17     8    18 1   
    18     9    10 1   
    19     9    16 1   
    20     9    17 2   
    21    10    11 2   
    22    10    19 1   
    23    11    12 1   
    24    11    24 1   
    25    12    13 2   
    26    12    25 1   
    27    13    19 1   
    28    13    26 1   
    29    14    27 1   
    30    14    28 1   
    31    17    18 1   
@<TRIPOS>SUBSTRUCTURE
     1 UX2         1 TEMP              0 ****  ****    0 ROOT
