@<TRIPOS>MOLECULE
UX3
   64    69     1     0     0
SMALL
abcg2


@<TRIPOS>ATOM
      1 C4         -19.9240    10.6450   -17.5110 cc         1 UX3       0.435900
      2 C5         -20.3070     9.4170   -17.0350 cd         1 UX3      -0.352600
      3 C6         -21.6540     8.9620   -17.0990 c          1 UX3       0.637600
      4 C8         -18.1650     9.7390   -16.7620 cd         1 UX3       0.468800
      5 N1         -22.4620     9.9360   -17.6800 ns         1 UX3      -0.475500
      6 N3         -20.8010    11.5270   -18.0810 n          1 UX3      -0.363300
      7 CAG        -17.6400     2.0340   -19.2550 ca         1 UX3      -0.103000
      8 CAE        -17.4020     0.9690   -20.1120 ca         1 UX3      -0.111500
      9 CAD        -17.9540     0.9600   -21.3860 ca         1 UX3      -0.108000
     10 CAF        -18.7450     2.0260   -21.7950 ca         1 UX3      -0.111500
     11 CAH        -18.9830     3.0910   -20.9380 ca         1 UX3      -0.103000
     12 CAZ        -18.4360     3.1100   -19.6540 cp         1 UX3      -0.035000
     13 CBA        -18.6700     4.2450   -18.7390 cp         1 UX3      -0.041000
     14 CAL        -18.6760     5.5570   -19.2050 ca         1 UX3      -0.099000
     15 CAJ        -18.8290     6.6280   -18.3360 ca         1 UX3      -0.092500
     16 CAK        -18.8560     4.0350   -17.3700 ca         1 UX3      -0.099000
     17 CAI        -19.0090     5.1030   -16.5040 ca         1 UX3      -0.092500
     18 CAX        -18.9770     6.4130   -16.9740 ca         1 UX3      -0.076300
     19 N7         -19.1510     8.8470   -16.5470 na         1 UX3      -0.103500
     20 O6         -22.1100     7.8980   -16.7220 o          1 UX3      -0.531000
     21 C2         -22.1300    11.1940   -18.1500 c          1 UX3       0.625000
     22 O2         -22.9760    11.9410   -18.5990 o          1 UX3      -0.559000
     23 CAP        -20.3480    12.8390   -18.5310 c3         1 UX3       0.117000
     24 CAA        -20.4050    13.8840   -17.4310 c3         1 UX3      -0.112100
     25 N9         -18.6070    10.8450   -17.3420 nc         1 UX3      -0.717000
     26 CAS        -16.7300     9.5010   -16.4270 c3         1 UX3      -0.127000
     27 CAY        -16.1320     8.3990   -17.2500 cc         1 UX3       0.219300
     28 NAU        -15.8450     7.1740   -16.7210 nc         1 UX3      -0.685000
     29 CBB        -15.4230     6.4390   -17.7240 cd         1 UX3       0.418800
     30 CAQ        -15.0470     4.9980   -17.6820 c6         1 UX3      -0.105700
     31 CAN        -14.2580     4.5980   -18.9270 c6         1 UX3      -0.078400
     32 CAO        -14.9400     5.1370   -20.1780 c6         1 UX3      -0.095400
     33 CAR        -14.9620     6.6560   -20.1680 c6         1 UX3       0.073600
     34 NBH        -15.4170     7.1440   -18.8770 na         1 UX3      -0.154500
     35 CAM        -15.8640     8.4030   -18.5900 cd         1 UX3      -0.207000
     36 H1         -23.4460     9.7100   -17.7550 hn         1 UX3       0.342500
     37 H3         -16.7770     0.1480   -19.7850 ha         1 UX3       0.113500
     38 H4         -17.7690     0.1300   -22.0550 ha         1 UX3       0.114000
     39 H5         -19.1860     2.0260   -22.7840 ha         1 UX3       0.113500
     40 H6         -19.6160     3.9060   -21.2650 ha         1 UX3       0.114500
     41 H7         -18.5250     5.7550   -20.2590 ha         1 UX3       0.113000
     42 H8         -18.8000     7.6330   -18.7360 ha         1 UX3       0.117500
     43 H9         -18.8880     3.0270   -16.9770 ha         1 UX3       0.113000
     44 H10        -19.1440     4.9140   -15.4450 ha         1 UX3       0.117500
     45 H13        -19.3280    12.7210   -18.8930 h1         1 UX3       0.068700
     46 H14        -20.9590    13.1340   -19.3810 h1         1 UX3       0.068700
     47 H15        -20.0370    14.8370   -17.8110 hc         1 UX3       0.046367
     48 H16        -21.4250    14.0350   -17.0780 hc         1 UX3       0.046367
     49 H17        -19.7850    13.5980   -16.5830 hc         1 UX3       0.046367
     50 H18        -16.6200     9.2570   -15.3680 hc         1 UX3       0.081200
     51 H19        -16.2070    10.4430   -16.5920 hc         1 UX3       0.081200
     52 H20        -15.9620     4.4010   -17.6240 hc         1 UX3       0.069700
     53 H21        -14.4830     4.7930   -16.7710 hc         1 UX3       0.069700
     54 H22        -14.1780     3.5110   -18.9760 hc         1 UX3       0.051200
     55 H23        -13.2380     4.9880   -18.8670 hc         1 UX3       0.051200
     56 H24        -15.9620     4.7530   -20.2370 hc         1 UX3       0.060700
     57 H25        -14.4220     4.8060   -21.0790 hc         1 UX3       0.060700
     58 H26        -13.9620     7.0520   -20.3630 h1         1 UX3       0.056700
     59 H27        -15.6270     7.0440   -20.9400 h1         1 UX3       0.056700
     60 H28        -15.9580     9.1680   -19.3430 h4         1 UX3       0.163000
     61 CAT        -19.0360     7.5290   -15.9630 c3         1 UX3       0.117900
     62 H2         -17.1850     2.0350   -18.2720 ha         1 UX3       0.114500
     63 H11        -19.8700     7.3810   -15.2780 h1         1 UX3       0.087700
     64 H12        -18.1290     7.5080   -15.3590 h1         1 UX3       0.087700
@<TRIPOS>BOND
     1     1     2 2   
     2     1     6 1   
     3     1    25 1   
     4     2     3 1   
     5     2    19 1   
     6     3     5 1   
     7     3    20 2   
     8     4    19 1   
     9     4    25 2   
    10     4    26 1   
    11     5    21 1   
    12     5    36 1   
    13     6    21 1   
    14     6    23 1   
    15     7     8 ar  
    16     7    12 ar  
    17     7    62 1   
    18     8     9 ar  
    19     8    37 1   
    20     9    10 ar  
    21     9    38 1   
    22    10    11 ar  
    23    10    39 1   
    24    11    12 ar  
    25    11    40 1   
    26    12    13 1   
    27    13    14 ar  
    28    13    16 ar  
    29    14    15 ar  
    30    14    41 1   
    31    15    18 ar  
    32    15    42 1   
    33    16    17 ar  
    34    16    43 1   
    35    17    18 ar  
    36    17    44 1   
    37    18    61 1   
    38    19    61 1   
    39    21    22 2   
    40    23    24 1   
    41    23    45 1   
    42    23    46 1   
    43    24    47 1   
    44    24    48 1   
    45    24    49 1   
    46    26    27 1   
    47    26    50 1   
    48    26    51 1   
    49    27    28 1   
    50    27    35 2   
    51    28    29 2   
    52    29    30 1   
    53    29    34 1   
    54    30    31 1   
    55    30    52 1   
    56    30    53 1   
    57    31    32 1   
    58    31    54 1   
    59    31    55 1   
    60    32    33 1   
    61    32    56 1   
    62    32    57 1   
    63    33    34 1   
    64    33    58 1   
    65    33    59 1   
    66    34    35 1   
    67    35    60 1   
    68    61    63 1   
    69    61    64 1   
@<TRIPOS>SUBSTRUCTURE
     1 UX3         1 TEMP              0 ****  ****    0 ROOT
