@<TRIPOS>MOLECULE
UX3
   64    69     1     0     0
SMALL
No Charge or Current Charge


@<TRIPOS>ATOM
      1 C4         -19.9530    10.7510   -17.4500 cc         1 UX3       0.435900
      2 C5         -20.4940     9.5780   -17.0480 cd         1 UX3      -0.352600
      3 C6         -21.9220     9.3000   -17.2070 c          1 UX3       0.637600
      4 C8         -18.3070     9.6410   -16.6770 cd         1 UX3       0.468800
      5 N1         -22.5900    10.3340   -17.7810 ns         1 UX3      -0.475500
      6 N3         -20.7190    11.7450   -18.0220 n          1 UX3      -0.363300
      7 CAG        -17.2620     2.0430   -19.2190 ca         1 UX3      -0.103000
      8 CAE        -16.9270     0.9860   -20.0830 ca         1 UX3      -0.111500
      9 CAD        -17.5460     0.8810   -21.3380 ca         1 UX3      -0.108000
     10 CAF        -18.5000     1.8340   -21.7280 ca         1 UX3      -0.111500
     11 CAH        -18.8320     2.8920   -20.8650 ca         1 UX3      -0.103000
     12 CAZ        -18.2200     3.0210   -19.5910 cp         1 UX3      -0.035000
     13 CBA        -18.5600     4.1600   -18.6790 cp         1 UX3      -0.041000
     14 CAL        -18.8910     5.4390   -19.1920 ca         1 UX3      -0.099000
     15 CAJ        -19.2020     6.5110   -18.3380 ca         1 UX3      -0.092500
     16 CAK        -18.5540     4.0000   -17.2720 ca         1 UX3      -0.099000
     17 CAI        -18.8590     5.0710   -16.4160 ca         1 UX3      -0.092500
     18 CAX        -19.1810     6.3380   -16.9370 ca         1 UX3      -0.076300
     19 N7         -19.4370     8.8390   -16.5340 na         1 UX3      -0.103500
     20 O6         -22.4780     8.2680   -16.8740 o          1 UX3      -0.531000
     21 C2         -22.0980    11.5340   -18.2010 c          1 UX3       0.625000
     22 O2         -22.8430    12.3630   -18.6970 o          1 UX3      -0.559000
     23 CAP        -20.1150    13.0230   -18.4680 c3         1 UX3       0.117000
     24 CAA        -19.9750    14.0470   -17.3260 c3         1 UX3      -0.112100
     25 N9         -18.6120    10.8060   -17.2310 nc         1 UX3      -0.717000
     26 CAS        -16.9020     9.2630   -16.3070 c3         1 UX3      -0.127000
     27 CAY        -16.3400     8.2210   -17.2230 cc         1 UX3       0.219300
     28 NAU        -15.8180     7.0570   -16.7270 nc         1 UX3      -0.685000
     29 CBB        -15.4490     6.3540   -17.7880 cd         1 UX3       0.418800
     30 CAQ        -14.8460     4.9710   -17.7540 c6         1 UX3      -0.105700
     31 CAN        -14.1920     4.6270   -19.1220 c6         1 UX3      -0.078400
     32 CAO        -15.0890     5.0720   -20.3110 c6         1 UX3      -0.095400
     33 CAR        -15.3630     6.6010   -20.3000 c6         1 UX3       0.073600
     34 NBH        -15.7160     7.0610   -18.9430 na         1 UX3      -0.154500
     35 CAM        -16.2820     8.2670   -18.5910 cd         1 UX3      -0.207000
     36 H1         -23.5790    10.1960   -17.9140 hn         1 UX3       0.342500
     37 H3         -16.1860     0.2500   -19.7790 ha         1 UX3       0.113500
     38 H4         -17.2880     0.0630   -22.0070 ha         1 UX3       0.114000
     39 H5         -18.9830     1.7530   -22.7000 ha         1 UX3       0.113500
     40 H6         -19.5810     3.6130   -21.1840 ha         1 UX3       0.114500
     41 H7         -18.8930     5.6110   -20.2650 ha         1 UX3       0.113000
     42 H8         -19.4500     7.4740   -18.7770 ha         1 UX3       0.117500
     43 H9         -18.3210     3.0320   -16.8350 ha         1 UX3       0.113000
     44 H10        -18.8420     4.9140   -15.3400 ha         1 UX3       0.117500
     45 H13        -19.1210    12.8210   -18.8890 h1         1 UX3       0.068700
     46 H14        -20.7130    13.4630   -19.2770 h1         1 UX3       0.068700
     47 H15        -19.5200    14.9720   -17.6980 hc         1 UX3       0.046367
     48 H16        -20.9570    14.2900   -16.9050 hc         1 UX3       0.046367
     49 H17        -19.3410    13.6500   -16.5250 hc         1 UX3       0.046367
     50 H18        -16.8790     8.9130   -15.2700 hc         1 UX3       0.081200
     51 H19        -16.2600    10.1500   -16.3400 hc         1 UX3       0.081200
     52 H20        -15.6320     4.2410   -17.5260 hc         1 UX3       0.069700
     53 H21        -14.1020     4.8920   -16.9500 hc         1 UX3       0.069700
     54 H22        -13.9930     3.5470   -19.1790 hc         1 UX3       0.051200
     55 H23        -13.2160     5.1270   -19.1980 hc         1 UX3       0.051200
     56 H24        -16.0440     4.5330   -20.2690 hc         1 UX3       0.060700
     57 H25        -14.6210     4.7890   -21.2640 hc         1 UX3       0.060700
     58 H26        -14.4620     7.1400   -20.6250 h1         1 UX3       0.056700
     59 H27        -16.1770     6.8460   -20.9970 h1         1 UX3       0.056700
     60 H28        -16.5960     9.0270   -19.2970 h4         1 UX3       0.163000
     61 CAT        -19.4920     7.4770   -15.9640 c3         1 UX3       0.117900
     62 H2         -16.7580     2.1110   -18.2590 ha         1 UX3       0.114500
     63 H11        -20.4890     7.3150   -15.5390 h1         1 UX3       0.087700
     64 H12        -18.7850     7.4280   -15.1270 h1         1 UX3       0.087700
@<TRIPOS>BOND
     1     1     2 2   
     2     1     6 1   
     3     1    25 1   
     4     2     3 1   
     5     2    19 1   
     6     3     5 1   
     7     3    20 2   
     8     4    19 1   
     9     4    25 2   
    10     4    26 1   
    11     5    21 1   
    12     5    36 1   
    13     6    21 1   
    14     6    23 1   
    15     7     8 ar  
    16     7    12 ar  
    17     7    62 1   
    18     8     9 ar  
    19     8    37 1   
    20     9    10 ar  
    21     9    38 1   
    22    10    11 ar  
    23    10    39 1   
    24    11    12 ar  
    25    11    40 1   
    26    12    13 1   
    27    13    14 ar  
    28    13    16 ar  
    29    14    15 ar  
    30    14    41 1   
    31    15    18 ar  
    32    15    42 1   
    33    16    17 ar  
    34    16    43 1   
    35    17    18 ar  
    36    17    44 1   
    37    18    61 1   
    38    19    61 1   
    39    21    22 2   
    40    23    24 1   
    41    23    45 1   
    42    23    46 1   
    43    24    47 1   
    44    24    48 1   
    45    24    49 1   
    46    26    27 1   
    47    26    50 1   
    48    26    51 1   
    49    27    28 1   
    50    27    35 2   
    51    28    29 2   
    52    29    30 1   
    53    29    34 1   
    54    30    31 1   
    55    30    52 1   
    56    30    53 1   
    57    31    32 1   
    58    31    54 1   
    59    31    55 1   
    60    32    33 1   
    61    32    56 1   
    62    32    57 1   
    63    33    34 1   
    64    33    58 1   
    65    33    59 1   
    66    34    35 1   
    67    35    60 1   
    68    61    63 1   
    69    61    64 1   
@<TRIPOS>SUBSTRUCTURE
     1 UX3         1 TEMP              0 ****  ****    0 ROOT
