@<TRIPOS>MOLECULE
UX4
   60    63     1     0     0
SMALL
bcc


@<TRIPOS>ATOM
      1 O29          7.4170    -1.8700    -0.3430 o          1 UX4      -0.593000
      2 C27          7.0530    -0.7210    -0.4990 c          1 UX4       0.765100
      3 O28          7.8450     0.3320    -0.3020 os         1 UX4      -0.438900
      4 C30          9.1960     0.0740     0.1000 c3         1 UX4       0.161400
      5 C31          9.8750     1.4070     0.3020 c3         1 UX4      -0.100100
      6 N23          5.8150    -0.3600    -0.9080 n          1 UX4      -0.473800
      7 C22          4.7720    -1.3490    -1.0690 c6         1 UX4       0.092000
      8 C26          3.6740    -1.1580    -0.0300 c6         1 UX4       0.080000
      9 C24          5.3160     0.9990    -0.9900 c6         1 UX4       0.092000
     10 C25          4.2340     1.2200     0.0540 c6         1 UX4       0.080000
     11 N20          3.1920     0.2120    -0.0540 n          1 UX4      -0.490800
     12 C19          1.8920     0.5920     0.0120 c          1 UX4       0.797100
     13 O21          1.5260     1.7560    -0.1130 o          1 UX4      -0.629100
     14 N18          0.9690    -0.3990     0.2270 ns         1 UX4      -0.461100
     15 C7          -0.3990    -0.1900     0.2350 cc         1 UX4       0.060500
     16 C6          -1.3390    -1.1780     0.3170 cd         1 UX4      -0.093300
     17 C15         -1.0370    -2.6430     0.3490 c3         1 UX4      -0.020800
     18 C2          -2.6550    -0.6120     0.3700 cd         1 UX4      -0.221600
     19 C1          -3.9180    -1.2870     0.4780 c          1 UX4       0.737100
     20 O16         -4.0700    -2.4970     0.5460 o          1 UX4      -0.626500
     21 S8          -1.0750     1.4190     0.1860 ss         1 UX4       0.066200
     22 C9          -2.6650     0.7600     0.2980 cc         1 UX4       0.178300
     23 N3          -3.7570     1.5460     0.2840 nc         1 UX4      -0.608100
     24 C4          -4.9000     0.9410     0.3870 cd         1 UX4       0.500900
     25 N5          -5.0190    -0.4140     0.5140 n          1 UX4      -0.385300
     26 C11         -6.1390     1.7760     0.3090 c3         1 UX4      -0.119700
     27 C12         -6.9750     1.5190    -0.9510 c3         1 UX4      -0.070400
     28 C13         -7.9120     0.3190    -0.8670 c3         1 UX4      -0.063700
     29 C17         -8.7580     0.2130    -2.1310 c3         1 UX4      -0.088100
     30 C14         -7.1880    -0.9980    -0.5970 c3         1 UX4      -0.090400
     31 C10         -6.3470    -1.0150     0.6740 c3         1 UX4       0.083000
     32 H1           9.2040    -0.5080     1.0240 h1         1 UX4       0.050200
     33 H2           9.7080    -0.5090    -0.6680 h1         1 UX4       0.050200
     34 H3          10.9090     1.2380     0.6010 hc         1 UX4       0.048033
     35 H4           9.8840     1.9960    -0.6150 hc         1 UX4       0.048033
     36 H5           9.3920     1.9900     1.0860 hc         1 UX4       0.048033
     37 H6           4.3420    -1.2510    -2.0700 h1         1 UX4       0.072200
     38 H7           5.1830    -2.3510    -0.9800 h1         1 UX4       0.072200
     39 H8           2.8790    -1.8580    -0.2780 h1         1 UX4       0.060950
     40 H9           4.0520    -1.4130     0.9660 h1         1 UX4       0.060950
     41 H10          6.1130     1.7200    -0.8440 h1         1 UX4       0.072200
     42 H11          4.9020     1.1600    -1.9900 h1         1 UX4       0.072200
     43 H12          4.6820     1.1750     1.0540 h1         1 UX4       0.060950
     44 H13          3.8020     2.2080    -0.0740 h1         1 UX4       0.060950
     45 H14          1.2690    -1.2940     0.5790 hn         1 UX4       0.325500
     46 H15         -1.2560    -3.0790     1.3250 hc         1 UX4       0.044367
     47 H16         -1.6360    -3.1810    -0.3840 hc         1 UX4       0.044367
     48 H17          0.0070    -2.8520     0.1220 hc         1 UX4       0.044367
     49 H20         -6.7600     1.6470     1.2010 hc         1 UX4       0.071200
     50 H21         -5.7990     2.8100     0.3150 hc         1 UX4       0.071200
     51 H22         -7.5770     2.4130    -1.1310 hc         1 UX4       0.051700
     52 H23         -6.3120     1.4190    -1.8170 hc         1 UX4       0.051700
     53 H24         -8.5890     0.4920    -0.0210 hc         1 UX4       0.042700
     54 H25         -8.1290     0.0740    -3.0140 hc         1 UX4       0.036367
     55 H26         -9.4460    -0.6310    -2.0760 hc         1 UX4       0.036367
     56 H27         -9.3500     1.1170    -2.2850 hc         1 UX4       0.036367
     57 H28         -7.9360    -1.7880    -0.5000 hc         1 UX4       0.055700
     58 H29         -6.5610    -1.2740    -1.4520 hc         1 UX4       0.055700
     59 H30         -6.1910    -2.0400     0.9940 h1         1 UX4       0.068700
     60 H31         -6.8620    -0.5090     1.4910 h1         1 UX4       0.068700
@<TRIPOS>BOND
     1     1     2 2   
     2     2     3 1   
     3     2     6 1   
     4     3     4 1   
     5     4     5 1   
     6     4    32 1   
     7     4    33 1   
     8     5    34 1   
     9     5    35 1   
    10     5    36 1   
    11     6     7 1   
    12     6     9 1   
    13     7     8 1   
    14     7    37 1   
    15     7    38 1   
    16     8    11 1   
    17     8    39 1   
    18     8    40 1   
    19     9    10 1   
    20     9    41 1   
    21     9    42 1   
    22    10    11 1   
    23    10    43 1   
    24    10    44 1   
    25    11    12 1   
    26    12    13 2   
    27    12    14 1   
    28    14    15 1   
    29    14    45 1   
    30    15    16 2   
    31    15    21 1   
    32    16    17 1   
    33    16    18 1   
    34    17    46 1   
    35    17    47 1   
    36    17    48 1   
    37    18    19 1   
    38    18    22 2   
    39    19    20 2   
    40    19    25 1   
    41    21    22 1   
    42    22    23 1   
    43    23    24 2   
    44    24    25 1   
    45    24    26 1   
    46    25    31 1   
    47    26    27 1   
    48    26    49 1   
    49    26    50 1   
    50    27    28 1   
    51    27    51 1   
    52    27    52 1   
    53    28    29 1   
    54    28    30 1   
    55    28    53 1   
    56    29    54 1   
    57    29    55 1   
    58    29    56 1   
    59    30    31 1   
    60    30    57 1   
    61    30    58 1   
    62    31    59 1   
    63    31    60 1   
@<TRIPOS>SUBSTRUCTURE
     1 UX4         1 TEMP              0 ****  ****    0 ROOT
