@<TRIPOS>MOLECULE
UX4
   60    63     1     0     0
SMALL
No Charge or Current Charge


@<TRIPOS>ATOM
      1 O29          7.6340    -2.1190    -0.2040 o          1 UX4      -0.544000
      2 C27          7.3530    -0.9290    -0.1910 c          1 UX4       0.649100
      3 O28          8.2770     0.0790    -0.2250 os         1 UX4      -0.462100
      4 C30          9.6660    -0.2820    -0.2880 c3         1 UX4       0.184600
      5 C31         10.4790     1.0210    -0.3170 c3         1 UX4      -0.100100
      6 N23          6.0310    -0.4440    -0.1230 n          1 UX4      -0.406800
      7 C22          4.8990    -1.3770    -0.3550 c6         1 UX4       0.092000
      8 C26          3.5280    -0.9060     0.1900 c6         1 UX4       0.080000
      9 C24          5.7110     0.9860    -0.3850 c6         1 UX4       0.092000
     10 C25          4.3440     1.4610     0.1640 c6         1 UX4       0.080000
     11 N20          3.2010     0.5310    -0.0550 n          1 UX4      -0.423800
     12 C19          1.8810     1.0290     0.0270 c          1 UX4       0.663100
     13 O21          1.6530     2.2300     0.0560 o          1 UX4      -0.629100
     14 N18          0.8760     0.0810     0.0650 ns         1 UX4      -0.394100
     15 C7          -0.5090     0.2660     0.1470 cc         1 UX4      -0.084400
     16 C6          -1.3930    -0.7980     0.1760 cd         1 UX4      -0.093300
     17 C15         -0.9800    -2.2570     0.1250 c3         1 UX4      -0.020800
     18 C2          -2.7700    -0.3700     0.2630 cd         1 UX4      -0.221600
     19 C1          -3.9750    -1.2340     0.3140 c          1 UX4       0.594600
     20 O16         -3.9250    -2.4570     0.2790 o          1 UX4      -0.551000
     21 S8          -1.3500     1.8200     0.2260 ss         1 UX4       0.356000
     22 C9          -2.9040     0.9940     0.2970 cc         1 UX4       0.033400
     23 N3          -4.1230     1.6260     0.3680 nc         1 UX4      -0.608100
     24 C4          -5.2080     0.8530     0.4150 cd         1 UX4       0.500900
     25 N5          -5.1900    -0.5360     0.4100 n          1 UX4      -0.318300
     26 C11         -6.5120     1.6210     0.4500 c3         1 UX4      -0.119700
     27 C12         -7.3790     1.4270    -0.8170 c3         1 UX4      -0.070400
     28 C13         -8.1970     0.1090    -0.8550 c3         1 UX4      -0.063700
     29 C17         -9.1220     0.0780    -2.0940 c3         1 UX4      -0.088100
     30 C14         -7.3270    -1.1750    -0.7920 c3         1 UX4      -0.090400
     31 C10         -6.4610    -1.3050     0.4790 c3         1 UX4       0.083000
     32 H1           9.9570    -0.8770     0.5890 h1         1 UX4       0.050200
     33 H2           9.8790    -0.8670    -1.1930 h1         1 UX4       0.050200
     34 H3          11.5520     0.7990    -0.3650 hc         1 UX4       0.048033
     35 H4          10.2130     1.6230    -1.1940 hc         1 UX4       0.048033
     36 H5          10.2910     1.6140     0.5870 hc         1 UX4       0.048033
     37 H6           4.8060    -1.5290    -1.4400 h1         1 UX4       0.072200
     38 H7           5.1260    -2.3590     0.0840 h1         1 UX4       0.072200
     39 H8           2.7650    -1.5590    -0.2530 h1         1 UX4       0.060950
     40 H9           3.5110    -1.0770     1.2760 h1         1 UX4       0.060950
     41 H10          6.4850     1.6400     0.0410 h1         1 UX4       0.072200
     42 H11          5.7220     1.1430    -1.4730 h1         1 UX4       0.072200
     43 H12          4.4460     1.6190     1.2470 h1         1 UX4       0.060950
     44 H13          4.1220     2.4410    -0.2810 h1         1 UX4       0.060950
     45 H14          1.2150    -0.8680     0.0250 hn         1 UX4       0.325500
     46 H15         -1.3230    -2.7910     1.0190 hc         1 UX4       0.044367
     47 H16         -1.4130    -2.7540    -0.7510 hc         1 UX4       0.044367
     48 H17          0.1040    -2.3960     0.0670 hc         1 UX4       0.044367
     49 H20         -7.0880     1.3540     1.3430 hc         1 UX4       0.071200
     50 H21         -6.3090     2.6950     0.5530 hc         1 UX4       0.071200
     51 H22         -8.0830     2.2680    -0.8760 hc         1 UX4       0.051700
     52 H23         -6.7430     1.4980    -1.7090 hc         1 UX4       0.051700
     53 H24         -8.8510     0.1050     0.0260 hc         1 UX4       0.042700
     54 H25         -8.5350     0.0800    -3.0210 hc         1 UX4       0.036367
     55 H26         -9.7500    -0.8210    -2.0880 hc         1 UX4       0.036367
     56 H27         -9.7860     0.9510    -2.1060 hc         1 UX4       0.036367
     57 H28         -7.9970    -2.0420    -0.8260 hc         1 UX4       0.055700
     58 H29         -6.6870    -1.2440    -1.6800 hc         1 UX4       0.055700
     59 H30         -6.2540    -2.3710     0.6370 h1         1 UX4       0.068700
     60 H31         -7.0380    -0.9810     1.3550 h1         1 UX4       0.068700
@<TRIPOS>BOND
     1     1     2 2   
     2     2     3 1   
     3     2     6 1   
     4     3     4 1   
     5     4     5 1   
     6     4    32 1   
     7     4    33 1   
     8     5    34 1   
     9     5    35 1   
    10     5    36 1   
    11     6     7 1   
    12     6     9 1   
    13     7     8 1   
    14     7    37 1   
    15     7    38 1   
    16     8    11 1   
    17     8    39 1   
    18     8    40 1   
    19     9    10 1   
    20     9    41 1   
    21     9    42 1   
    22    10    11 1   
    23    10    43 1   
    24    10    44 1   
    25    11    12 1   
    26    12    13 2   
    27    12    14 1   
    28    14    15 1   
    29    14    45 1   
    30    15    16 2   
    31    15    21 1   
    32    16    17 1   
    33    16    18 1   
    34    17    46 1   
    35    17    47 1   
    36    17    48 1   
    37    18    19 1   
    38    18    22 2   
    39    19    20 2   
    40    19    25 1   
    41    21    22 1   
    42    22    23 1   
    43    23    24 2   
    44    24    25 1   
    45    24    26 1   
    46    25    31 1   
    47    26    27 1   
    48    26    49 1   
    49    26    50 1   
    50    27    28 1   
    51    27    51 1   
    52    27    52 1   
    53    28    29 1   
    54    28    30 1   
    55    28    53 1   
    56    29    54 1   
    57    29    55 1   
    58    29    56 1   
    59    30    31 1   
    60    30    57 1   
    61    30    58 1   
    62    31    59 1   
    63    31    60 1   
@<TRIPOS>SUBSTRUCTURE
     1 UX4         1 TEMP              0 ****  ****    0 ROOT
