@<TRIPOS>MOLECULE
UX5
   37    39     1     0     0
SMALL
abcg2


@<TRIPOS>ATOM
      1 N1         -25.1160    10.8800     7.9070 na         1 UX5      -0.082800
      2 N3         -24.9080    10.5460     9.2190 ns         1 UX5      -0.389200
      3 C4         -25.2620    12.0330     5.5400 cc         1 UX5       0.437900
      4 C5         -23.5360    12.2790     8.7040 cc         1 UX5      -0.401200
      5 C6         -23.8480    11.3430     9.7320 c          1 UX5       0.556200
      6 C7         -26.1050    10.9350     5.8160 cc         1 UX5      -0.329600
      7 C8         -27.0050    10.3870     4.7580 c          1 UX5       0.632700
      8 C10        -28.0320    11.8390     1.6650 ca         1 UX5      -0.165300
      9 C13        -26.6960    11.8820     1.2590 ca         1 UX5      -0.057500
     10 C15        -27.2420    13.3570    -0.5840 ca         1 UX5       0.293000
     11 C11        -28.9610    12.5690     0.9290 ca         1 UX5      -0.057500
     12 C12        -28.5820    13.3150    -0.1800 ca         1 UX5      -0.175500
     13 C14        -26.3020    12.6260     0.1590 ca         1 UX5      -0.175500
     14 C2         -26.0250    10.3460     7.0730 cd         1 UX5       0.090700
     15 C3         -24.3030    11.9820     7.5990 cd         1 UX5       0.491500
     16 C9         -28.4560    11.0090     2.8510 c3         1 UX5       0.155300
     17 N2         -24.3920    12.5490     6.3820 nd         1 UX5      -0.681000
     18 N4         -27.6690    11.3130     4.0390 ns         1 UX5      -0.501900
     19 N5         -26.8400    14.1510    -1.6520 nv         1 UX5      -1.071000
     20 O1         -23.3950    11.1590    10.8630 o          1 UX5      -0.526000
     21 O2         -27.0990     9.1740     4.5550 o          1 UX5      -0.610100
     22 H6         -25.0090     9.5730     9.4800 hn         1 UX5       0.330500
     23 H4         -25.3050    12.4890     4.5570 h4         1 UX5       0.034100
     24 H16        -22.8070    13.0670     8.7730 ha         1 UX5       0.244000
     25 H12        -25.9500    11.3250     1.8140 ha         1 UX5       0.112500
     26 H2         -27.2860     9.5080     8.5550 hc         1 UX5       0.079700
     27 H3         -27.6430     8.9760     6.8900 hc         1 UX5       0.079700
     28 H1         -26.2370     8.3400     7.7490 hc         1 UX5       0.079700
     29 H10        -30.0050    12.5540     1.2240 ha         1 UX5       0.112500
     30 H11        -29.3230    13.8750    -0.7390 ha         1 UX5       0.115000
     31 H13        -25.2600    12.6470    -0.1390 ha         1 UX5       0.115000
     32 H9         -29.5160    11.1750     3.0580 h1         1 UX5       0.065200
     33 H8         -28.3220     9.9450     2.6580 h1         1 UX5       0.065200
     34 H7         -27.5960    12.2830     4.3080 hn         1 UX5       0.318500
     35 H15        -25.9740    13.8740    -2.0920 hn         1 UX5       0.449000
     36 H14        -27.5580    14.3590    -2.3300 hn         1 UX5       0.449000
     37 C1         -26.8560     9.2270     7.5900 c3         1 UX5      -0.080800
@<TRIPOS>BOND
     1     1     2 1   
     2     1    14 1   
     3     1    15 1   
     4     2     5 1   
     5     2    22 1   
     6     3     6 1   
     7     3    17 2   
     8     3    23 1   
     9     4     5 1   
    10     4    15 2   
    11     4    24 1   
    12     5    20 2   
    13     6     7 1   
    14     6    14 2   
    15     7    18 1   
    16     7    21 2   
    17     8     9 ar  
    18     8    11 ar  
    19     8    16 1   
    20     9    13 ar  
    21     9    25 1   
    22    10    12 ar  
    23    10    13 ar  
    24    10    19 1   
    25    11    12 ar  
    26    11    29 1   
    27    12    30 1   
    28    13    31 1   
    29    14    37 1   
    30    15    17 1   
    31    16    18 1   
    32    16    32 1   
    33    16    33 1   
    34    18    34 1   
    35    19    35 1   
    36    19    36 1   
    37    26    37 1   
    38    27    37 1   
    39    28    37 1   
@<TRIPOS>SUBSTRUCTURE
     1 UX5         1 TEMP              0 ****  ****    0 ROOT
