@<TRIPOS>MOLECULE
UX5
   37    39     1     0     0
SMALL
No Charge or Current Charge


@<TRIPOS>ATOM
      1 N1         -25.1960    10.8960     8.1040 na         1 UX5      -0.082800
      2 N3         -24.9250    10.6190     9.4470 ns         1 UX5      -0.389200
      3 C4         -25.4540    12.0960     5.6960 cc         1 UX5       0.437900
      4 C5         -23.9170    12.5200     8.7730 cc         1 UX5      -0.401200
      5 C6         -24.0720    11.5980     9.8930 c          1 UX5       0.556200
      6 C7         -26.2230    10.9000     5.9920 cc         1 UX5      -0.329600
      7 C8         -27.1140    10.3460     4.9300 c          1 UX5       0.632700
      8 C10        -27.7270    11.6350     1.4400 ca         1 UX5      -0.165300
      9 C13        -26.7050    11.4130     0.4960 ca         1 UX5      -0.057500
     10 C15        -27.3280    13.4550    -0.6750 ca         1 UX5       0.293000
     11 C11        -28.5460    12.7750     1.3210 ca         1 UX5      -0.057500
     12 C12        -28.3440    13.6800     0.2640 ca         1 UX5      -0.175500
     13 C14        -26.5090    12.3230    -0.5580 ca         1 UX5      -0.175500
     14 C2         -26.1340    10.2890     7.2570 cd         1 UX5       0.090700
     15 C3         -24.6070    12.0660     7.6920 cd         1 UX5       0.491500
     16 C9         -27.9390    10.6570     2.5830 c3         1 UX5       0.155300
     17 N2         -24.6410    12.7510     6.5140 nd         1 UX5      -0.681000
     18 N4         -27.1350    11.0380     3.7410 ns         1 UX5      -0.501900
     19 N5         -27.1350    14.3370    -1.7020 nv         1 UX5      -1.071000
     20 O1         -23.5350    11.6470    10.9850 o          1 UX5      -0.526000
     21 O2         -27.7990     9.3430     5.0560 o          1 UX5      -0.610100
     22 H6         -24.8130     9.6720     9.7920 hn         1 UX5       0.330500
     23 H4         -25.5030    12.5870     4.7350 h4         1 UX5       0.034100
     24 H16        -23.3100    13.4100     8.8340 ha         1 UX5       0.244000
     25 H12        -26.0630    10.5380     0.5800 ha         1 UX5       0.112500
     26 H2         -26.6830     8.8320     8.7990 hc         1 UX5       0.079700
     27 H3         -27.9740     9.2280     7.6780 hc         1 UX5       0.079700
     28 H1         -26.6350     8.1840     7.1630 hc         1 UX5       0.079700
     29 H10        -29.3360    12.9600     2.0460 ha         1 UX5       0.112500
     30 H11        -28.9810    14.5570     0.1800 ha         1 UX5       0.115000
     31 H13        -25.7180    12.1430    -1.2810 ha         1 UX5       0.115000
     32 H9         -28.9990    10.6390     2.8710 h1         1 UX5       0.065200
     33 H8         -27.6550     9.6430     2.2670 h1         1 UX5       0.065200
     34 H7         -26.5630    11.8660     3.6590 hn         1 UX5       0.318500
     35 H15        -26.4980    14.1000    -2.4600 hn         1 UX5       0.449000
     36 H14        -27.8150    15.0770    -1.8720 hn         1 UX5       0.449000
     37 C1         -26.8920     9.0720     7.7510 c3         1 UX5      -0.080800
@<TRIPOS>BOND
     1     1     2 1   
     2     1    14 1   
     3     1    15 1   
     4     2     5 1   
     5     2    22 1   
     6     3     6 1   
     7     3    17 2   
     8     3    23 1   
     9     4     5 1   
    10     4    15 2   
    11     4    24 1   
    12     5    20 2   
    13     6     7 1   
    14     6    14 2   
    15     7    18 1   
    16     7    21 2   
    17     8     9 ar  
    18     8    11 ar  
    19     8    16 1   
    20     9    13 ar  
    21     9    25 1   
    22    10    12 ar  
    23    10    13 ar  
    24    10    19 1   
    25    11    12 ar  
    26    11    29 1   
    27    12    30 1   
    28    13    31 1   
    29    14    37 1   
    30    15    17 1   
    31    16    18 1   
    32    16    32 1   
    33    16    33 1   
    34    18    34 1   
    35    19    35 1   
    36    19    36 1   
    37    26    37 1   
    38    27    37 1   
    39    28    37 1   
@<TRIPOS>SUBSTRUCTURE
     1 UX5         1 TEMP              0 ****  ****    0 ROOT
