@<TRIPOS>MOLECULE
UX7
   29    31     1     0     0
SMALL
abcg2


@<TRIPOS>ATOM
      1 N1         -25.6930    13.5650    30.0350 ns         1 UX7      -0.398400
      2 C4         -23.4830    12.5800    27.5140 ca         1 UX7       0.086400
      3 C5         -24.6010    13.3050    29.2500 cc         1 UX7       0.436800
      4 C6         -25.6510    14.1750    31.2560 c          1 UX7       0.641100
      5 C7         -26.9640    14.3470    31.9090 cx         1 UX7      -0.248700
      6 C8         -27.1840    15.5930    32.7320 cx         1 UX7      -0.090900
      7 C10        -22.4050    13.0750    28.2520 ca         1 UX7      -0.185000
      8 N          -24.7160    12.7260    28.1070 nd         1 UX7      -0.596100
      9 C          -18.5300    12.8070    26.6890 c3         1 UX7       0.147900
     10 O          -19.6500    12.2920    25.9980 os         1 UX7      -0.340100
     11 C1         -20.8670    12.4230    26.5600 ca         1 UX7       0.143100
     12 C11        -21.0910    13.0090    27.7990 ca         1 UX7      -0.163000
     13 C2         -21.9420    11.9200    25.8050 ca         1 UX7      -0.138000
     14 C3         -23.2360    11.9960    26.2710 ca         1 UX7      -0.033000
     15 C9         -27.0140    14.2910    33.4160 cx         1 UX7      -0.090900
     16 O1         -24.5930    14.5400    31.7400 o          1 UX7      -0.575100
     17 S          -22.9810    13.7450    29.7490 ss         1 UX7       0.115800
     18 H1         -26.5830    13.2840    29.6470 hn         1 UX7       0.341500
     19 H2         -27.8220    13.9560    31.3760 hc         1 UX7       0.092700
     20 H3         -26.3720    16.3070    32.7760 hc         1 UX7       0.085450
     21 H4         -28.1720    16.0300    32.6800 hc         1 UX7       0.085450
     22 H5         -17.6630    12.6100    26.0640 h1         1 UX7       0.041700
     23 H6         -18.6110    13.8860    26.8500 h1         1 UX7       0.041700
     24 H7         -18.3860    12.3180    27.6560 h1         1 UX7       0.041700
     25 H8         -20.2850    13.4040    28.4020 ha         1 UX7       0.126000
     26 H9         -21.7370    11.4680    24.8430 ha         1 UX7       0.130000
     27 H10        -24.0560    11.6070    25.6800 ha         1 UX7       0.131000
     28 H11        -27.8840    13.8130    33.8470 hc         1 UX7       0.085450
     29 H12        -26.0840    14.1010    33.9360 hc         1 UX7       0.085450
@<TRIPOS>BOND
     1     1     3 1   
     2     1     4 1   
     3     1    18 1   
     4     2     7 ar  
     5     2     8 1   
     6     2    14 ar  
     7     3     8 2   
     8     3    17 1   
     9     4     5 1   
    10     4    16 2   
    11     5     6 1   
    12     5    15 1   
    13     5    19 1   
    14     6    15 1   
    15     6    20 1   
    16     6    21 1   
    17     7    12 ar  
    18     7    17 1   
    19     9    10 1   
    20     9    22 1   
    21     9    23 1   
    22     9    24 1   
    23    10    11 1   
    24    11    12 ar  
    25    11    13 ar  
    26    12    25 1   
    27    13    14 ar  
    28    13    26 1   
    29    14    27 1   
    30    15    28 1   
    31    15    29 1   
@<TRIPOS>SUBSTRUCTURE
     1 UX7         1 TEMP              0 ****  ****    0 ROOT
