@<TRIPOS>MOLECULE
UX7
   29    31     1     0     0
SMALL
No Charge or Current Charge


@<TRIPOS>ATOM
      1 N1         -25.4320    13.4870    30.4380 ns         1 UX7      -0.398400
      2 C4         -23.4490    12.8990    27.6330 ca         1 UX7       0.086400
      3 C5         -24.3640    13.2910    29.5960 cc         1 UX7       0.436800
      4 C6         -25.4340    13.7310    31.7840 c          1 UX7       0.641100
      5 C7         -26.8180    13.8950    32.3620 cx         1 UX7      -0.248700
      6 C8         -27.6630    15.0750    31.9180 cx         1 UX7      -0.090900
      7 C10        -22.2980    12.9930    28.3890 ca         1 UX7      -0.185000
      8 N          -24.6510    13.0680    28.3100 nd         1 UX7      -0.596100
      9 C          -18.4520    12.5030    26.5040 c3         1 UX7       0.147900
     10 O          -19.7040    12.4230    25.8000 os         1 UX7      -0.340100
     11 C1         -20.9170    12.5850    26.4380 ca         1 UX7       0.143100
     12 C11        -21.0200    12.8420    27.8260 ca         1 UX7      -0.163000
     13 C2         -22.0890    12.4880    25.6610 ca         1 UX7      -0.138000
     14 C3         -23.3590    12.6440    26.2540 ca         1 UX7      -0.033000
     15 C9         -27.0850    15.0470    33.3140 cx         1 UX7      -0.090900
     16 O1         -24.4280    13.8050    32.4730 o          1 UX7      -0.575100
     17 S          -22.6430    13.3140    30.0800 ss         1 UX7       0.115800
     18 H1         -26.3470    13.4480    30.0160 hn         1 UX7       0.341500
     19 H2         -27.3390    12.9640    32.5670 hc         1 UX7       0.092700
     20 H3         -27.2350    15.7850    31.2130 hc         1 UX7       0.085450
     21 H4         -28.7350    14.9230    31.8120 hc         1 UX7       0.085450
     22 H5         -17.6160    12.3450    25.8120 h1         1 UX7       0.041700
     23 H6         -18.3280    13.4900    26.9680 h1         1 UX7       0.041700
     24 H7         -18.3950    11.7360    27.2870 h1         1 UX7       0.041700
     25 H8         -20.1420    12.9240    28.4600 ha         1 UX7       0.126000
     26 H9         -22.0130    12.2910    24.5950 ha         1 UX7       0.130000
     27 H10        -24.2610    12.5690    25.6520 ha         1 UX7       0.131000
     28 H11        -27.7690    14.8740    34.1420 hc         1 UX7       0.085450
     29 H12        -26.2700    15.7320    33.5370 hc         1 UX7       0.085450
@<TRIPOS>BOND
     1     1     3 1   
     2     1     4 1   
     3     1    18 1   
     4     2     7 ar  
     5     2     8 1   
     6     2    14 ar  
     7     3     8 2   
     8     3    17 1   
     9     4     5 1   
    10     4    16 2   
    11     5     6 1   
    12     5    15 1   
    13     5    19 1   
    14     6    15 1   
    15     6    20 1   
    16     6    21 1   
    17     7    12 ar  
    18     7    17 1   
    19     9    10 1   
    20     9    22 1   
    21     9    23 1   
    22     9    24 1   
    23    10    11 1   
    24    11    12 ar  
    25    11    13 ar  
    26    12    25 1   
    27    13    14 ar  
    28    13    26 1   
    29    14    27 1   
    30    15    28 1   
    31    15    29 1   
@<TRIPOS>SUBSTRUCTURE
     1 UX7         1 TEMP              0 ****  ****    0 ROOT
