@<TRIPOS>MOLECULE
UX8
   27    28     1     0     0
SMALL
bcc


@<TRIPOS>ATOM
      1 C          184.3120   174.4100   172.9290 c          1 UX8       0.908600
      2 CA         184.4060   175.1880   171.5980 c3         1 UX8      -0.017500
      3 CG         185.5220   173.3430   170.2540 cc         1 UX8      -0.089400
      4 CE2        185.6550   171.0680   170.0290 ca         1 UX8      -0.052200
      5 CB         185.6320   174.7390   170.7700 c3         1 UX8       0.224300
      6 CD1        185.0140   172.9610   169.0440 cd         1 UX8      -0.115100
      7 CD2        185.9420   172.1380   170.9070 ca         1 UX8      -0.070800
      8 CE3        186.5420   171.8570   172.1410 ca         1 UX8      -0.036000
      9 CZ3        186.8420   170.5470   172.4580 ca         1 UX8      -0.183000
     10 CH2        186.5470   169.4990   171.5700 ca         1 UX8      -0.119000
     11 CZ2        185.9500   169.7430   170.3490 ca         1 UX8      -0.172000
     12 N          184.5370   176.6350   171.7700 n8         1 UX8      -0.924800
     13 NE1        185.0860   171.6020   168.9120 na         1 UX8      -0.189400
     14 O          185.1420   174.7470   173.8020 o          1 UX8      -0.831300
     15 O9         185.7900   175.6240   169.6850 oh         1 UX8      -0.643800
     16 OXT        183.4390   173.5280   173.0190 o          1 UX8      -0.831300
     17 HA         183.5150   175.0020   170.9920 h1         1 UX8       0.046700
     18 HB2        186.5080   174.7950   171.4390 h1         1 UX8       0.047700
     19 HD1        184.6070   173.5630   168.2470 h4         1 UX8       0.157000
     20 HE3        186.7520   172.6550   172.8430 ha         1 UX8       0.164000
     21 HZ3        187.3060   170.3190   173.4090 ha         1 UX8       0.116000
     22 HH2        186.7910   168.4820   171.8490 ha         1 UX8       0.105000
     23 HZ2        185.7220   168.9350   169.6640 ha         1 UX8       0.109000
     24 H          183.6360   177.0460   171.9750 hn         1 UX8       0.342300
     25 H2         185.1210   176.8050   172.5820 hn         1 UX8       0.342300
     26 HE1        184.8020   171.0860   168.0960 hn         1 UX8       0.278700
     27 H4         185.4670   176.4690   170.0480 ho         1 UX8       0.430000
@<TRIPOS>BOND
     1     1     2 1   
     2     1    14 1   
     3     1    16 1   
     4     2     5 1   
     5     2    12 1   
     6     2    17 1   
     7     3     5 1   
     8     3     6 2   
     9     3     7 1   
    10     4     7 ar  
    11     4    11 ar  
    12     4    13 1   
    13     5    15 1   
    14     5    18 1   
    15     6    13 1   
    16     6    19 1   
    17     7     8 ar  
    18     8     9 ar  
    19     8    20 1   
    20     9    10 ar  
    21     9    21 1   
    22    10    11 ar  
    23    10    22 1   
    24    11    23 1   
    25    12    24 1   
    26    12    25 1   
    27    13    26 1   
    28    15    27 1   
@<TRIPOS>SUBSTRUCTURE
     1 UX8         1 TEMP              0 ****  ****    0 ROOT
