@<TRIPOS>MOLECULE
UX8
   27    28     1     0     0
SMALL
No Charge or Current Charge


@<TRIPOS>ATOM
      1 C          184.3100   174.4150   172.9560 c          1 UX8       0.908600
      2 CA         184.4480   175.1980   171.5900 c3         1 UX8      -0.017500
      3 CG         185.5810   173.3280   170.2530 cc         1 UX8      -0.089400
      4 CE2        185.6580   171.0750   170.0160 ca         1 UX8      -0.052200
      5 CB         185.7130   174.7170   170.8360 c3         1 UX8       0.224300
      6 CD1        185.0280   172.9720   169.0240 cd         1 UX8      -0.115100
      7 CD2        185.9790   172.0920   170.8720 ca         1 UX8      -0.070800
      8 CE3        186.6000   171.8470   172.1080 ca         1 UX8      -0.036000
      9 CZ3        186.8810   170.5070   172.4530 ca         1 UX8      -0.183000
     10 CH2        186.5450   169.4550   171.5690 ca         1 UX8      -0.119000
     11 CZ2        185.9260   169.7360   170.3330 ca         1 UX8      -0.172000
     12 N          184.3910   176.7270   171.6410 n8         1 UX8      -0.924800
     13 NE1        185.0700   171.5670   168.8670 na         1 UX8      -0.189400
     14 O          185.1330   174.6310   173.8390 o          1 UX8      -0.831300
     15 O9         185.9480   175.6870   169.8190 oh         1 UX8      -0.643800
     16 OXT        183.3000   173.7460   173.1490 o          1 UX8      -0.831300
     17 HA         183.5880   174.8880   170.9800 h1         1 UX8       0.046700
     18 HB2        186.5600   174.7230   171.5350 h1         1 UX8       0.047700
     19 HD1        184.6060   173.6160   168.2600 h4         1 UX8       0.157000
     20 HE3        186.8590   172.6620   172.7810 ha         1 UX8       0.164000
     21 HZ3        187.3600   170.2840   173.4030 ha         1 UX8       0.116000
     22 HH2        186.7660   168.4250   171.8430 ha         1 UX8       0.105000
     23 HZ2        185.6660   168.9350   169.6450 ha         1 UX8       0.109000
     24 H          183.4750   177.0180   172.0050 hn         1 UX8       0.342300
     25 H2         185.0470   177.0570   172.3600 hn         1 UX8       0.342300
     26 HE1        184.7370   171.0320   168.0730 hn         1 UX8       0.278700
     27 H4         185.4110   176.4430   170.1700 ho         1 UX8       0.430000
@<TRIPOS>BOND
     1     1     2 1   
     2     1    14 1   
     3     1    16 1   
     4     2     5 1   
     5     2    12 1   
     6     2    17 1   
     7     3     5 1   
     8     3     6 2   
     9     3     7 1   
    10     4     7 ar  
    11     4    11 ar  
    12     4    13 1   
    13     5    15 1   
    14     5    18 1   
    15     6    13 1   
    16     6    19 1   
    17     7     8 ar  
    18     8     9 ar  
    19     8    20 1   
    20     9    10 ar  
    21     9    21 1   
    22    10    11 ar  
    23    10    22 1   
    24    11    23 1   
    25    12    24 1   
    26    12    25 1   
    27    13    26 1   
    28    15    27 1   
@<TRIPOS>SUBSTRUCTURE
     1 UX8         1 TEMP              0 ****  ****    0 ROOT
