@<TRIPOS>MOLECULE
UX9
  102   107     1     0     0
SMALL
abcg2


@<TRIPOS>ATOM
      1 C1          -3.5530     0.1200     0.1980 c          1 UX9       0.580000
      2 O2          -3.1460    -0.1970    -0.9040 o          1 UX9      -0.550000
      3 C3          -2.9470     1.1840     1.1230 c5         1 UX9      -0.115000
      4 C4          -3.4850     0.7300     2.4900 c5         1 UX9       0.161300
      5 C5          -4.8500     0.1380     2.1380 c5         1 UX9       0.064000
      6 N6          -4.6640    -0.3560     0.7920 n          1 UX9      -0.392800
      7 C7          -5.5970    -1.2900     0.2050 c5         1 UX9       0.184000
      8 C8          -5.9850    -0.9640    -1.2130 ca         1 UX9      -0.113300
      9 C9          -5.4710    -1.9020    -2.1020 ca         1 UX9      -0.047300
     10 C10         -4.6390    -2.9200    -1.3820 c5         1 UX9      -0.072100
     11 C11         -5.0800    -2.7480     0.0810 c5         1 UX9       0.152300
     12 O12         -4.1050    -2.9990     1.0490 oh         1 UX9      -0.638000
     13 C13         -5.7390    -1.7940    -3.4580 ca         1 UX9      -0.099000
     14 C14         -6.5110    -0.7300    -3.9130 ca         1 UX9      -0.098000
     15 C15         -7.0130     0.2130    -3.0210 ca         1 UX9      -0.118000
     16 C16         -6.7530     0.0980    -1.6590 ca         1 UX9      -0.080000
     17 O17         -2.6200    -0.2510     3.0060 oh         1 UX9      -0.640000
     18 C18         -1.4180     1.2190     1.0750 c3         1 UX9      -0.047400
     19 C19         -0.7940     1.7380    -0.2170 c3         1 UX9       0.153800
     20 C21         -3.5980     2.5350     0.7020 c3         1 UX9      -0.025100
     21 C22         -3.4360     3.6680     1.6810 ca         1 UX9      -0.080300
     22 C23         -2.2710     4.4310     1.7520 ca         1 UX9      -0.108000
     23 C24         -2.1450     5.4620     2.6740 ca         1 UX9      -0.108000
     24 C25         -3.1870     5.7560     3.5420 ca         1 UX9      -0.108000
     25 C26         -4.3590     5.0150     3.4760 ca         1 UX9      -0.108000
     26 C27         -4.4780     3.9850     2.5530 ca         1 UX9      -0.108000
     27 C28          6.8790     0.4950    -0.8080 cp         1 UX9       0.010000
     28 C29          5.4930     0.9730    -0.9480 cp         1 UX9      -0.046000
     29 C30          4.7270     0.6230    -2.0580 ca         1 UX9      -0.094500
     30 C31          3.4110     1.0470    -2.1660 ca         1 UX9      -0.088500
     31 C32          2.8300     1.8340    -1.1800 ca         1 UX9      -0.085300
     32 C33          3.6010     2.1980    -0.0800 ca         1 UX9      -0.088500
     33 C34          4.9120     1.7750     0.0360 ca         1 UX9      -0.094500
     34 C35          1.3750     2.2010    -1.2420 c3         1 UX9       0.193100
     35 N36          0.6330     1.4390    -0.2400 n3         1 UX9      -0.453600
     36 N37          0.8590     0.0900    -0.4180 ns         1 UX9      -0.384300
     37 C38          1.5830    -0.6300     0.4580 c          1 UX9       0.608100
     38 C39          1.8850    -2.0560    -0.0040 c3         1 UX9       0.049700
     39 N40          3.2680    -2.3140     0.3140 ns         1 UX9      -0.485900
     40 C41          4.1870    -2.6290    -0.6210 c          1 UX9       0.638100
     41 O42          5.4110    -2.6630    -0.0840 os         1 UX9      -0.452100
     42 C43          6.4790    -3.0330    -0.9460 c3         1 UX9       0.168900
     43 O44          3.9540    -2.8750    -1.7860 o          1 UX9      -0.553000
     44 C45          0.9160    -3.1150     0.5870 c3         1 UX9      -0.045000
     45 C46         -0.5130    -2.8060     0.1360 c3         1 UX9      -0.087433
     46 C47          1.3180    -4.4850     0.0330 c3         1 UX9      -0.087433
     47 C48          0.9720    -3.1610     2.1130 c3         1 UX9      -0.087433
     48 O49          1.9860    -0.2080     1.5260 o          1 UX9      -0.579100
     49 C50          7.3950     0.1210     0.4310 ca         1 UX9      -0.154500
     50 C51          8.7000    -0.3370     0.5120 ca         1 UX9       0.327900
     51 N52          9.5100    -0.4460    -0.5360 nb         1 UX9      -0.668000
     52 C53          9.0200    -0.0890    -1.7180 ca         1 UX9       0.327900
     53 C54          7.7310     0.3830    -1.9050 ca         1 UX9      -0.154500
     54 H4          -3.5870     1.5640     3.1910 h1         1 UX9       0.059700
     55 H5          -5.1300    -0.6680     2.8200 h1         1 UX9       0.047200
     56 H5A         -5.6440     0.8910     2.1820 h1         1 UX9       0.047200
     57 H7          -6.4750    -1.2690     0.8550 h1         1 UX9       0.061700
     58 H10         -4.7960    -3.9380    -1.7440 hc         1 UX9       0.069200
     59 H10A        -3.5780    -2.6830    -1.4910 hc         1 UX9       0.069200
     60 H11         -5.9580    -3.3920     0.2290 h1         1 UX9       0.029700
     61 HO12        -3.8040    -3.9060     0.9430 ho         1 UX9       0.444000
     62 H13         -5.3500    -2.5230    -4.1590 ha         1 UX9       0.115000
     63 H14         -6.7270    -0.6350    -4.9690 ha         1 UX9       0.112000
     64 H15         -7.6150     1.0340    -3.3880 ha         1 UX9       0.112000
     65 H16         -7.1540     0.8260    -0.9640 ha         1 UX9       0.111000
     66 HO17        -2.9870    -0.5670     3.8370 ho         1 UX9       0.445000
     67 H18         -1.0470     1.8250     1.9060 hc         1 UX9       0.072700
     68 H18A        -1.0520     0.2100     1.2560 hc         1 UX9       0.072700
     69 H19         -1.2990     1.3290    -1.0990 h1         1 UX9       0.046200
     70 H19A        -0.8810     2.8240    -0.2850 h1         1 UX9       0.046200
     71 H21         -3.1930     2.8210    -0.2710 hc         1 UX9       0.056200
     72 H21A        -4.6680     2.3810     0.5360 hc         1 UX9       0.056200
     73 H23         -1.4520     4.2350     1.0730 ha         1 UX9       0.109500
     74 H24         -1.2300     6.0400     2.7080 ha         1 UX9       0.113500
     75 H25         -3.0910     6.5610     4.2590 ha         1 UX9       0.114000
     76 H26         -5.1840     5.2400     4.1400 ha         1 UX9       0.113500
     77 H27         -5.4000     3.4160     2.5060 ha         1 UX9       0.109500
     78 H30          5.1440    -0.0130    -2.8280 ha         1 UX9       0.119000
     79 H31          2.8250     0.7410    -3.0250 ha         1 UX9       0.119000
     80 H33          3.1670     2.8100     0.7010 ha         1 UX9       0.119000
     81 H34          5.4940     2.0810     0.8970 ha         1 UX9       0.119000
     82 H35          1.2310     3.2610    -1.0190 h1         1 UX9       0.046200
     83 H35A         0.9880     2.0270    -2.2580 h1         1 UX9       0.046200
     84 HN37         0.5900    -0.3270    -1.3020 hn         1 UX9       0.308500
     85 H39          1.7900    -2.1120    -1.0910 h1         1 UX9       0.081700
     86 HN40         3.5950    -2.0260     1.2240 hn         1 UX9       0.342500
     87 H43          7.3760    -3.0130    -0.3330 h1         1 UX9       0.047700
     88 H43A         6.3440    -4.0370    -1.3490 h1         1 UX9       0.047700
     89 H43B         6.6000    -2.3290    -1.7690 h1         1 UX9       0.047700
     90 H46         -0.5830    -2.7170    -0.9510 hc         1 UX9       0.039589
     91 H46A        -1.1830    -3.6110     0.4390 hc         1 UX9       0.039589
     92 H46B        -0.9120    -1.8880     0.5690 hc         1 UX9       0.039589
     93 H47          2.3190    -4.7740     0.3540 hc         1 UX9       0.039589
     94 H47A         0.6240    -5.2470     0.3930 hc         1 UX9       0.039589
     95 H47B         1.2940    -4.5010    -1.0580 hc         1 UX9       0.039589
     96 H48          0.6380    -2.2300     2.5710 hc         1 UX9       0.039589
     97 H48A         0.3210    -3.9590     2.4780 hc         1 UX9       0.039589
     98 H48B         1.9790    -3.3740     2.4770 hc         1 UX9       0.039589
     99 H50          6.7860     0.1570     1.3240 ha         1 UX9       0.127500
    100 H51          9.1050    -0.6370     1.4720 h4         1 UX9       0.018600
    101 H53          9.6890    -0.1760    -2.5670 h4         1 UX9       0.018600
    102 H54          7.4080     0.6710    -2.8970 ha         1 UX9       0.127500
@<TRIPOS>BOND
     1     1     2 2   
     2     1     3 1   
     3     1     6 1   
     4     3     4 1   
     5     3    18 1   
     6     3    20 1   
     7     4     5 1   
     8     4    17 1   
     9     4    54 1   
    10     5     6 1   
    11     5    55 1   
    12     5    56 1   
    13     6     7 1   
    14     7     8 1   
    15     7    11 1   
    16     7    57 1   
    17     8     9 ar  
    18     8    16 ar  
    19     9    10 1   
    20     9    13 ar  
    21    10    11 1   
    22    10    58 1   
    23    10    59 1   
    24    11    12 1   
    25    11    60 1   
    26    12    61 1   
    27    13    14 ar  
    28    13    62 1   
    29    14    15 ar  
    30    14    63 1   
    31    15    16 ar  
    32    15    64 1   
    33    16    65 1   
    34    17    66 1   
    35    18    19 1   
    36    18    67 1   
    37    18    68 1   
    38    19    35 1   
    39    19    69 1   
    40    19    70 1   
    41    20    21 1   
    42    20    71 1   
    43    20    72 1   
    44    21    22 ar  
    45    21    26 ar  
    46    22    23 ar  
    47    22    73 1   
    48    23    24 ar  
    49    23    74 1   
    50    24    25 ar  
    51    24    75 1   
    52    25    26 ar  
    53    25    76 1   
    54    26    77 1   
    55    27    28 1   
    56    27    49 ar  
    57    27    53 ar  
    58    28    29 ar  
    59    28    33 ar  
    60    29    30 ar  
    61    29    78 1   
    62    30    31 ar  
    63    30    79 1   
    64    31    32 ar  
    65    31    34 1   
    66    32    33 ar  
    67    32    80 1   
    68    33    81 1   
    69    34    35 1   
    70    34    82 1   
    71    34    83 1   
    72    35    36 1   
    73    36    37 1   
    74    36    84 1   
    75    37    38 1   
    76    37    48 2   
    77    38    39 1   
    78    38    44 1   
    79    38    85 1   
    80    39    40 1   
    81    39    86 1   
    82    40    41 1   
    83    40    43 2   
    84    41    42 1   
    85    42    87 1   
    86    42    88 1   
    87    42    89 1   
    88    44    45 1   
    89    44    46 1   
    90    44    47 1   
    91    45    90 1   
    92    45    91 1   
    93    45    92 1   
    94    46    93 1   
    95    46    94 1   
    96    46    95 1   
    97    47    96 1   
    98    47    97 1   
    99    47    98 1   
   100    49    50 ar  
   101    49    99 1   
   102    50    51 ar  
   103    50   100 1   
   104    51    52 ar  
   105    52    53 ar  
   106    52   101 1   
   107    53   102 1   
@<TRIPOS>SUBSTRUCTURE
     1 UX9         1 TEMP              0 ****  ****    0 ROOT
