@<TRIPOS>MOLECULE
UX9
  102   107     1     0     0
SMALL
No Charge or Current Charge


@<TRIPOS>ATOM
      1 C1          -3.8220     0.4930    -0.0040 c          1 UX9       0.580000
      2 O2          -3.3780     0.1820    -1.1000 o          1 UX9      -0.550000
      3 C3          -3.1970     1.4070     1.1260 c5         1 UX9      -0.115000
      4 C4          -3.8020     0.8330     2.5100 c5         1 UX9       0.161300
      5 C5          -5.2370     0.4450     2.0200 c5         1 UX9       0.064000
      6 N6          -4.9740    -0.0030     0.6260 n          1 UX9      -0.392800
      7 C7          -5.8450    -1.1090     0.1350 c5         1 UX9       0.184000
      8 C8          -5.9720    -1.0940    -1.3660 ca         1 UX9      -0.113300
      9 C9          -5.2330    -2.0980    -1.9630 ca         1 UX9      -0.047300
     10 C10         -4.4360    -2.9060    -0.9690 c5         1 UX9      -0.072100
     11 C11         -5.1070    -2.5010     0.4020 c5         1 UX9       0.152300
     12 O12         -4.1540    -2.5020     1.4790 oh         1 UX9      -0.638000
     13 C13         -5.2340    -2.2590    -3.3580 ca         1 UX9      -0.099000
     14 C14         -6.0110    -1.3870    -4.1460 ca         1 UX9      -0.098000
     15 C15         -6.7700    -0.3670    -3.5340 ca         1 UX9      -0.118000
     16 C16         -6.7540    -0.2150    -2.1340 ca         1 UX9      -0.080000
     17 O17         -3.1210    -0.3410     2.9580 oh         1 UX9      -0.640000
     18 C18         -1.6270     1.3500     1.1000 c3         1 UX9      -0.047400
     19 C19         -0.8880     1.9150    -0.1480 c3         1 UX9       0.153800
     20 C21         -3.6960     2.8750     0.8610 c3         1 UX9      -0.025100
     21 C22         -3.4980     3.8640     2.0120 ca         1 UX9      -0.080300
     22 C23         -2.2720     4.5370     2.1940 ca         1 UX9      -0.108000
     23 C24         -2.1070     5.4450     3.2530 ca         1 UX9      -0.108000
     24 C25         -3.1680     5.6970     4.1370 ca         1 UX9      -0.108000
     25 C26         -4.3970     5.0430     3.9570 ca         1 UX9      -0.108000
     26 C27         -4.5620     4.1340     2.8980 ca         1 UX9      -0.108000
     27 C28          6.8980     0.4280    -1.0890 cp         1 UX9       0.010000
     28 C29          5.4990     0.9590    -1.1400 cp         1 UX9      -0.046000
     29 C30          4.6100     0.5810    -2.1770 ca         1 UX9      -0.094500
     30 C31          3.2870     1.0530    -2.2080 ca         1 UX9      -0.088500
     31 C32          2.8150     1.9170    -1.2020 ca         1 UX9      -0.085300
     32 C33          3.6880     2.3150    -0.1740 ca         1 UX9      -0.088500
     33 C34          5.0120     1.8430    -0.1440 ca         1 UX9      -0.094500
     34 C35          1.3470     2.3430    -1.1760 c3         1 UX9       0.193100
     35 N36          0.5520     1.5740    -0.1850 n3         1 UX9      -0.453600
     36 N37          0.7640     0.1650    -0.3380 ns         1 UX9      -0.384300
     37 C38          1.5900    -0.5710     0.5090 c          1 UX9       0.608100
     38 C39          1.9730    -1.9840    -0.0250 c3         1 UX9       0.049700
     39 N40          3.3640    -2.2810     0.3920 ns         1 UX9      -0.485900
     40 C41          4.3560    -2.7250    -0.4350 c          1 UX9       0.638100
     41 O42          5.5100    -2.8240     0.2790 os         1 UX9      -0.452100
     42 C43          6.6880    -3.2680    -0.4170 c3         1 UX9       0.168900
     43 O44          4.2220    -2.9850    -1.6200 o          1 UX9      -0.553000
     44 C45          0.9680    -3.1230     0.3930 c3         1 UX9      -0.045000
     45 C46         -0.4610    -2.8090    -0.1340 c3         1 UX9      -0.087433
     46 C47          1.4150    -4.4780    -0.2250 c3         1 UX9      -0.087433
     47 C48          0.9040    -3.2780     1.9380 c3         1 UX9      -0.087433
     48 O49          2.0250    -0.1190     1.5660 o          1 UX9      -0.579100
     49 C50          7.5580     0.1770     0.1380 ca         1 UX9      -0.154500
     50 C51          8.8660    -0.3340     0.1440 ca         1 UX9       0.327900
     51 N52          9.5550    -0.6070    -0.9870 nb         1 UX9      -0.668000
     52 C53          8.9390    -0.3710    -2.1680 ca         1 UX9       0.327900
     53 C54          7.6330     0.1350    -2.2620 ca         1 UX9      -0.154500
     54 H4          -3.8230     1.5800     3.3150 h1         1 UX9       0.059700
     55 H5          -5.6860    -0.3420     2.6410 h1         1 UX9       0.047200
     56 H5A         -5.9140     1.3090     2.0270 h1         1 UX9       0.047200
     57 H7          -6.8340    -1.0840     0.6120 h1         1 UX9       0.061700
     58 H10         -4.4980    -3.9840    -1.1510 hc         1 UX9       0.069200
     59 H10A        -3.3770    -2.6280    -1.0000 hc         1 UX9       0.069200
     60 H11         -5.8880    -3.2410     0.6230 h1         1 UX9       0.029700
     61 HO12        -3.9020    -3.4400     1.6260 ho         1 UX9       0.444000
     62 H13         -4.6400    -3.0410    -3.8240 ha         1 UX9       0.115000
     63 H14         -6.0240    -1.4990    -5.2280 ha         1 UX9       0.112000
     64 H15         -7.3680     0.3050    -4.1460 ha         1 UX9       0.112000
     65 H16         -7.3370     0.5680    -1.6560 ha         1 UX9       0.111000
     66 HO17        -3.4790    -1.0870     2.4110 ho         1 UX9       0.445000
     67 H18         -1.2260     1.8580     1.9840 hc         1 UX9       0.072700
     68 H18A        -1.3270     0.3030     1.2140 hc         1 UX9       0.072700
     69 H19         -1.3610     1.5500    -1.0660 h1         1 UX9       0.046200
     70 H19A        -0.9970     3.0060    -0.1540 h1         1 UX9       0.046200
     71 H21         -3.2380     3.2780    -0.0490 hc         1 UX9       0.056200
     72 H21A        -4.7650     2.8520     0.6150 hc         1 UX9       0.056200
     73 H23         -1.4420     4.3620     1.5160 ha         1 UX9       0.109500
     74 H24         -1.1550     5.9560     3.3870 ha         1 UX9       0.113500
     75 H25         -3.0400     6.4010     4.9570 ha         1 UX9       0.114000
     76 H26         -5.2230     5.2400     4.6380 ha         1 UX9       0.113500
     77 H27         -5.5210     3.6380     2.7690 ha         1 UX9       0.109500
     78 H30          4.9370    -0.1100    -2.9490 ha         1 UX9       0.119000
     79 H31          2.6200     0.7230    -3.0020 ha         1 UX9       0.119000
     80 H33          3.3320     2.9710     0.6170 ha         1 UX9       0.119000
     81 H34          5.6640     2.1660     0.6630 ha         1 UX9       0.119000
     82 H35          1.2930     3.4160    -0.9450 h1         1 UX9       0.046200
     83 H35A         0.9200     2.2100    -2.1800 h1         1 UX9       0.046200
     84 HN37         0.4550    -0.2920    -1.1910 hn         1 UX9       0.308500
     85 H39          1.9610    -1.9080    -1.1200 h1         1 UX9       0.081700
     86 HN40         3.6430    -2.0740     1.3420 hn         1 UX9       0.342500
     87 H43          7.5500    -3.2870     0.2620 h1         1 UX9       0.047700
     88 H43A         6.5470    -4.2810    -0.8170 h1         1 UX9       0.047700
     89 H43B         6.9260    -2.5960    -1.2510 h1         1 UX9       0.047700
     90 H46         -0.4530    -2.6370    -1.2170 hc         1 UX9       0.039589
     91 H46A        -1.1430    -3.6450     0.0670 hc         1 UX9       0.039589
     92 H46B        -0.8850    -1.9240     0.3520 hc         1 UX9       0.039589
     93 H47          2.3830    -4.8020     0.1740 hc         1 UX9       0.039589
     94 H47A         0.6890    -5.2690    -0.0050 hc         1 UX9       0.039589
     95 H47B         1.5060    -4.3990    -1.3160 hc         1 UX9       0.039589
     96 H48          0.5460    -2.3590     2.4170 hc         1 UX9       0.039589
     97 H48A         0.2180    -4.0860     2.2200 hc         1 UX9       0.039589
     98 H48B         1.8890    -3.5180     2.3570 hc         1 UX9       0.039589
     99 H50          7.0590     0.3560     1.0850 ha         1 UX9       0.127500
    100 H51          9.3780    -0.5350     1.0840 h4         1 UX9       0.018600
    101 H53          9.5130    -0.5950    -3.0670 h4         1 UX9       0.018600
    102 H54          7.2060     0.3090    -3.2440 ha         1 UX9       0.127500
@<TRIPOS>BOND
     1     1     2 2   
     2     1     3 1   
     3     1     6 1   
     4     3     4 1   
     5     3    18 1   
     6     3    20 1   
     7     4     5 1   
     8     4    17 1   
     9     4    54 1   
    10     5     6 1   
    11     5    55 1   
    12     5    56 1   
    13     6     7 1   
    14     7     8 1   
    15     7    11 1   
    16     7    57 1   
    17     8     9 ar  
    18     8    16 ar  
    19     9    10 1   
    20     9    13 ar  
    21    10    11 1   
    22    10    58 1   
    23    10    59 1   
    24    11    12 1   
    25    11    60 1   
    26    12    61 1   
    27    13    14 ar  
    28    13    62 1   
    29    14    15 ar  
    30    14    63 1   
    31    15    16 ar  
    32    15    64 1   
    33    16    65 1   
    34    17    66 1   
    35    18    19 1   
    36    18    67 1   
    37    18    68 1   
    38    19    35 1   
    39    19    69 1   
    40    19    70 1   
    41    20    21 1   
    42    20    71 1   
    43    20    72 1   
    44    21    22 ar  
    45    21    26 ar  
    46    22    23 ar  
    47    22    73 1   
    48    23    24 ar  
    49    23    74 1   
    50    24    25 ar  
    51    24    75 1   
    52    25    26 ar  
    53    25    76 1   
    54    26    77 1   
    55    27    28 1   
    56    27    49 ar  
    57    27    53 ar  
    58    28    29 ar  
    59    28    33 ar  
    60    29    30 ar  
    61    29    78 1   
    62    30    31 ar  
    63    30    79 1   
    64    31    32 ar  
    65    31    34 1   
    66    32    33 ar  
    67    32    80 1   
    68    33    81 1   
    69    34    35 1   
    70    34    82 1   
    71    34    83 1   
    72    35    36 1   
    73    36    37 1   
    74    36    84 1   
    75    37    38 1   
    76    37    48 2   
    77    38    39 1   
    78    38    44 1   
    79    38    85 1   
    80    39    40 1   
    81    39    86 1   
    82    40    41 1   
    83    40    43 2   
    84    41    42 1   
    85    42    87 1   
    86    42    88 1   
    87    42    89 1   
    88    44    45 1   
    89    44    46 1   
    90    44    47 1   
    91    45    90 1   
    92    45    91 1   
    93    45    92 1   
    94    46    93 1   
    95    46    94 1   
    96    46    95 1   
    97    47    96 1   
    98    47    97 1   
    99    47    98 1   
   100    49    50 ar  
   101    49    99 1   
   102    50    51 ar  
   103    50   100 1   
   104    51    52 ar  
   105    52    53 ar  
   106    52   101 1   
   107    53   102 1   
@<TRIPOS>SUBSTRUCTURE
     1 UX9         1 TEMP              0 ****  ****    0 ROOT
