@<TRIPOS>MOLECULE
UXA
   26    28     1     0     0
SMALL
abcg2


@<TRIPOS>ATOM
      1 C4         -21.7410    12.8130    26.5710 ca         1 UXA      -0.153600
      2 C5         -22.7750    12.1870    25.8850 ca         1 UXA      -0.054000
      3 C6         -24.0620    12.0920    26.4180 ca         1 UXA      -0.109000
      4 C7         -24.2600    12.6350    27.6630 ca         1 UXA       0.076100
      5 C8         -25.0690    13.3300    29.6210 c5         1 UXA       0.376600
      6 C10        -21.9640    13.3550    27.8510 ca         1 UXA      -0.079000
      7 N          -19.5800    13.8580    26.3090 ns         1 UXA      -0.482900
      8 C          -20.4030    12.8710    25.9100 c          1 UXA       0.617700
      9 O          -20.0810    12.0660    25.0470 o          1 UXA      -0.593100
     10 C1         -18.2680    14.0140    25.7710 cx         1 UXA       0.052700
     11 C2         -18.1000    14.6030    24.4040 cx         1 UXA      -0.137900
     12 C3         -17.7440    15.4040    25.6200 cx         1 UXA      -0.137900
     13 C9         -23.2300    13.2480    28.3620 ca         1 UXA       0.042100
     14 O1         -25.3880    12.6670    28.4010 os         1 UXA      -0.341100
     15 O2         -23.6900    13.6730    29.5610 os         1 UXA      -0.346100
     16 H1         -22.5830    11.7650    24.9080 ha         1 UXA       0.144000
     17 H2         -24.8620    11.6100    25.8720 ha         1 UXA       0.140000
     18 H3         -25.6720    14.2350    29.7170 h2         1 UXA       0.066700
     19 H4         -21.1770    13.8120    28.4360 ha         1 UXA       0.131000
     20 H5         -19.9010    14.5470    26.9690 hn         1 UXA       0.319500
     21 H6         -17.5600    13.2470    26.0660 h1         1 UXA       0.092700
     22 H7         -19.0000    14.8790    23.8690 hc         1 UXA       0.077700
     23 H8         -17.3030    14.2170    23.7840 hc         1 UXA       0.077700
     24 H9         -16.7000    15.5750    25.8450 hc         1 UXA       0.077700
     25 H10        -18.4000    16.2220    25.8930 hc         1 UXA       0.077700
     26 H12        -25.2490    12.6580    30.4620 h2         1 UXA       0.066700
@<TRIPOS>BOND
     1     1     2 ar  
     2     1     6 ar  
     3     1     8 1   
     4     2     3 ar  
     5     2    16 1   
     6     3     4 ar  
     7     3    17 1   
     8     4    13 ar  
     9     4    14 1   
    10     5    14 1   
    11     5    15 1   
    12     5    18 1   
    13     5    26 1   
    14     6    13 ar  
    15     6    19 1   
    16     7     8 1   
    17     7    10 1   
    18     7    20 1   
    19     8     9 2   
    20    10    11 1   
    21    10    12 1   
    22    10    21 1   
    23    11    12 1   
    24    11    22 1   
    25    11    23 1   
    26    12    24 1   
    27    12    25 1   
    28    13    15 1   
@<TRIPOS>SUBSTRUCTURE
     1 UXA         1 TEMP              0 ****  ****    0 ROOT
