@<TRIPOS>MOLECULE
UXA
   26    28     1     0     0
SMALL
No Charge or Current Charge


@<TRIPOS>ATOM
      1 C4         -21.8000    12.7170    26.4360 ca         1 UXA      -0.153600
      2 C5         -22.7800    11.7700    26.0240 ca         1 UXA      -0.054000
      3 C6         -24.0180    11.6650    26.6940 ca         1 UXA      -0.109000
      4 C7         -24.2560    12.5180    27.7750 ca         1 UXA       0.076100
      5 C8         -25.0770    13.5870    29.5280 c5         1 UXA       0.376600
      6 C10        -22.0900    13.5660    27.5410 ca         1 UXA      -0.079000
      7 N          -19.5700    13.7250    26.1300 ns         1 UXA      -0.482900
      8 C          -20.4850    12.7940    25.6850 c          1 UXA       0.617700
      9 O          -20.2390    12.0700    24.7290 o          1 UXA      -0.593100
     10 C1         -18.2770    13.9420    25.5400 cx         1 UXA       0.052700
     11 C2         -18.1280    15.1070    24.5930 cx         1 UXA      -0.137900
     12 C3         -17.5110    15.1690    25.9690 cx         1 UXA      -0.137900
     13 C9         -23.3280    13.4320    28.1820 ca         1 UXA       0.042100
     14 O1         -25.3880    12.5570    28.5230 os         1 UXA      -0.341100
     15 O2         -23.7550    14.1670    29.2400 os         1 UXA      -0.346100
     16 H1         -22.5840    11.1100    25.1810 ha         1 UXA       0.144000
     17 H2         -24.7680    10.9440    26.3790 ha         1 UXA       0.140000
     18 H3         -25.8390    14.3740    29.4940 h2         1 UXA       0.066700
     19 H4         -21.3890    14.3130    27.9040 ha         1 UXA       0.131000
     20 H5         -19.8450    14.2800    26.9290 hn         1 UXA       0.319500
     21 H6         -17.7140    13.0300    25.3310 h1         1 UXA       0.092700
     22 H7         -19.0030    15.7230    24.4000 hc         1 UXA       0.077700
     23 H8         -17.4630    14.9820    23.7420 hc         1 UXA       0.077700
     24 H9         -16.4290    15.0850    26.0430 hc         1 UXA       0.077700
     25 H10        -17.9670    15.8320    26.7000 hc         1 UXA       0.077700
     26 H12        -25.0580    13.1240    30.5220 h2         1 UXA       0.066700
@<TRIPOS>BOND
     1     1     2 ar  
     2     1     6 ar  
     3     1     8 1   
     4     2     3 ar  
     5     2    16 1   
     6     3     4 ar  
     7     3    17 1   
     8     4    13 ar  
     9     4    14 1   
    10     5    14 1   
    11     5    15 1   
    12     5    18 1   
    13     5    26 1   
    14     6    13 ar  
    15     6    19 1   
    16     7     8 1   
    17     7    10 1   
    18     7    20 1   
    19     8     9 2   
    20    10    11 1   
    21    10    12 1   
    22    10    21 1   
    23    11    12 1   
    24    11    22 1   
    25    11    23 1   
    26    12    24 1   
    27    12    25 1   
    28    13    15 1   
@<TRIPOS>SUBSTRUCTURE
     1 UXA         1 TEMP              0 ****  ****    0 ROOT
