@<TRIPOS>MOLECULE
UXB
   24    24     1     0     0
SMALL
No Charge or Current Charge


@<TRIPOS>ATOM
      1 C7          -2.9270    15.9060   -35.5810 c3         1 UXB      -0.069400
      2 C8          -3.4220    15.2690   -36.8970 c3         1 UXB       0.160600
      3 C1          -2.4940    12.4090   -34.4920 ca         1 UXB      -0.097000
      4 C5          -0.3370    11.4510   -35.0920 ca         1 UXB      -0.102000
      5 C6          -2.8700    14.9240   -34.3840 c3         1 UXB       0.207800
      6 C4           0.1930    12.7430   -35.2310 ca         1 UXB       0.124000
      7 C3          -0.6160    13.8690   -35.0020 ca         1 UXB      -0.106000
      8 C2          -1.9710    13.7120   -34.6320 ca         1 UXB      -0.113300
      9 Cl           1.8770    12.9540   -35.6930 cl         1 UXB      -0.216000
     10 C           -1.6820    11.2840   -34.7220 ca         1 UXB      -0.103000
     11 N           -2.4300    15.6210   -33.1620 n8         1 UXB      -0.993200
     12 O           -4.7830    14.8390   -36.7630 oh         1 UXB      -0.671000
     13 H1          -1.9330    16.3350   -35.7550 hc         1 UXB       0.057200
     14 H2          -3.5850    16.7460   -35.3270 hc         1 UXB       0.057200
     15 H3          -2.7750    14.4230   -37.1650 h1         1 UXB       0.025200
     16 H4          -3.3420    16.0140   -37.7010 h1         1 UXB       0.025200
     17 H5          -3.5350    12.2660   -34.2080 ha         1 UXB       0.124000
     18 H6           0.2920    10.5830   -35.2700 ha         1 UXB       0.131000
     19 H7          -3.8960    14.5650   -34.2080 h1         1 UXB       0.082700
     20 H8          -0.1840    14.8600   -35.1120 ha         1 UXB       0.125000
     21 H9          -2.0960    10.2840   -34.6130 ha         1 UXB       0.120000
     22 H10         -2.4180    14.9430   -32.3910 hn         1 UXB       0.396000
     23 H11         -1.4410    15.8700   -33.2690 hn         1 UXB       0.396000
     24 H13         -5.0510    14.4630   -37.6320 ho         1 UXB       0.440000
@<TRIPOS>BOND
     1     1     2 1   
     2     1     5 1   
     3     1    13 1   
     4     1    14 1   
     5     2    12 1   
     6     2    15 1   
     7     2    16 1   
     8     3     8 ar  
     9     3    10 ar  
    10     3    17 1   
    11     4     6 ar  
    12     4    10 ar  
    13     4    18 1   
    14     5     8 1   
    15     5    11 1   
    16     5    19 1   
    17     6     7 ar  
    18     6     9 1   
    19     7     8 ar  
    20     7    20 1   
    21    10    21 1   
    22    11    22 1   
    23    11    23 1   
    24    12    24 1   
@<TRIPOS>SUBSTRUCTURE
     1 UXB         1 TEMP              0 ****  ****    0 ROOT
