@<TRIPOS>MOLECULE
UXB
   24    24     1     0     0
SMALL
abcg2


@<TRIPOS>ATOM
      1 C7          -2.9140    15.8670   -35.5850 c3         1 UXB      -0.069400
      2 C8          -3.4200    15.1960   -36.8460 c3         1 UXB       0.160600
      3 C1          -2.5240    12.4460   -34.6560 ca         1 UXB      -0.097000
      4 C5          -0.3800    11.4540   -35.1560 ca         1 UXB      -0.102000
      5 C6          -2.8250    14.9410   -34.3640 c3         1 UXB       0.207800
      6 C4           0.1720    12.7300   -35.1400 ca         1 UXB       0.124000
      7 C3          -0.5940    13.8560   -34.8880 ca         1 UXB      -0.106000
      8 C2          -1.9620    13.7200   -34.6400 ca         1 UXB      -0.113300
      9 CL           1.8900    12.9190   -35.4500 cl         1 UXB      -0.216000
     10 C           -1.7410    11.3230   -34.9110 ca         1 UXB      -0.103000
     11 N           -2.3950    15.7320   -33.2020 n8         1 UXB      -0.993200
     12 O           -4.7560    14.7250   -36.6180 oh         1 UXB      -0.671000
     13 H1          -1.9230    16.2820   -35.7950 hc         1 UXB       0.057200
     14 H2          -3.5660    16.7060   -35.3300 hc         1 UXB       0.057200
     15 H3          -2.7700    14.3600   -37.1210 h1         1 UXB       0.025200
     16 H4          -3.4100    15.9170   -37.6700 h1         1 UXB       0.025200
     17 H5          -3.5850    12.3320   -34.4700 ha         1 UXB       0.124000
     18 H6           0.2400    10.5910   -35.3540 ha         1 UXB       0.131000
     19 H7          -3.8300    14.5780   -34.1430 h1         1 UXB       0.082700
     20 H8          -0.1260    14.8320   -34.8870 ha         1 UXB       0.125000
     21 H9          -2.1900    10.3380   -34.9180 ha         1 UXB       0.120000
     22 H10         -2.3040    15.1270   -32.3910 hn         1 UXB       0.396000
     23 H11         -1.4730    16.1250   -33.3670 hn         1 UXB       0.396000
     24 H13         -5.0410    14.2370   -37.4000 ho         1 UXB       0.440000
@<TRIPOS>BOND
     1     1     2 1   
     2     1     5 1   
     3     1    13 1   
     4     1    14 1   
     5     2    12 1   
     6     2    15 1   
     7     2    16 1   
     8     3     8 ar  
     9     3    10 ar  
    10     3    17 1   
    11     4     6 ar  
    12     4    10 ar  
    13     4    18 1   
    14     5     8 1   
    15     5    11 1   
    16     5    19 1   
    17     6     7 ar  
    18     6     9 1   
    19     7     8 ar  
    20     7    20 1   
    21    10    21 1   
    22    11    22 1   
    23    11    23 1   
    24    12    24 1   
@<TRIPOS>SUBSTRUCTURE
     1 UXB         1 TEMP              0 ****  ****    0 ROOT
