@<TRIPOS>MOLECULE
UXD
   23    24     1     0     0
SMALL
No Charge or Current Charge


@<TRIPOS>ATOM
      1 N1         -23.7580    12.6780    27.1290 na         1 UXD      -0.001200
      2 C4         -19.7940    14.5650    26.8370 c5         1 UXD       0.104000
      3 C5         -21.9650    12.6550    25.8600 cc         1 UXD      -0.268600
      4 C6         -22.5360    13.3280    26.9130 cd         1 UXD      -0.137000
      5 C7         -22.8800    11.6560    25.4990 cc         1 UXD       0.292900
      6 N          -19.7440    13.8110    25.5670 n          1 UXD      -0.415800
      7 C          -20.6830    12.8460    25.1260 c          1 UXD       0.653700
      8 O          -20.4330    12.1720    24.1350 o          1 UXD      -0.613100
      9 C1         -18.5080    14.0840    24.8000 c5         1 UXD       0.104000
     10 C2         -18.0030    15.3880    25.4650 c5         1 UXD      -0.095900
     11 C3         -18.3520    15.1240    26.9470 c5         1 UXD      -0.095900
     12 N2         -23.9720    11.6280    26.2370 nd         1 UXD      -0.526800
     13 H1         -24.4470    12.9180    27.8430 hn         1 UXD       0.372000
     14 H3         -20.0330    13.9260    27.6970 h1         1 UXD       0.049700
     15 H4         -22.2320    14.1810    27.5060 h4         1 UXD       0.154000
     16 H5         -22.7770    10.9310    24.7020 h4         1 UXD       0.056100
     17 H6         -18.7010    14.2220    23.7280 h1         1 UXD       0.049700
     18 H7         -17.7880    13.2640    24.9230 h1         1 UXD       0.049700
     19 H8         -16.9330    15.5570    25.3000 hc         1 UXD       0.053950
     20 H9         -18.5390    16.2640    25.0800 hc         1 UXD       0.053950
     21 H10        -17.6740    14.3820    27.3860 hc         1 UXD       0.053950
     22 H11        -18.2970    16.0260    27.5670 hc         1 UXD       0.053950
     23 H2         -20.5260    15.3820    26.7740 h1         1 UXD       0.049700
@<TRIPOS>BOND
     1     1     4 1   
     2     1    12 1   
     3     1    13 1   
     4     2     6 1   
     5     2    11 1   
     6     2    14 1   
     7     2    23 1   
     8     3     4 2   
     9     3     5 1   
    10     3     7 1   
    11     4    15 1   
    12     5    12 2   
    13     5    16 1   
    14     6     7 1   
    15     6     9 1   
    16     7     8 2   
    17     9    10 1   
    18     9    17 1   
    19     9    18 1   
    20    10    11 1   
    21    10    19 1   
    22    10    20 1   
    23    11    21 1   
    24    11    22 1   
@<TRIPOS>SUBSTRUCTURE
     1 UXD         1 TEMP              0 ****  ****    0 ROOT
