@<TRIPOS>MOLECULE
UXD
   23    24     1     0     0
SMALL
bcc


@<TRIPOS>ATOM
      1 N1         -23.7070    12.7120    27.0880 na         1 UXD      -0.001600
      2 C4         -19.8140    14.5570    26.8180 c5         1 UXD       0.104000
      3 C5         -21.9150    12.6920    25.8540 cc         1 UXD      -0.333900
      4 C6         -22.6170    13.4250    26.7940 cd         1 UXD      -0.104300
      5 C7         -22.7090    11.5390    25.6670 cc         1 UXD       0.358200
      6 N          -19.8110    13.8750    25.5270 n          1 UXD      -0.482800
      7 C          -20.6850    12.9570    25.0850 c          1 UXD       0.720700
      8 O          -20.4810    12.3290    24.0470 o          1 UXD      -0.613100
      9 C1         -18.6060    14.1700    24.7550 c5         1 UXD       0.104000
     10 C2         -17.9590    15.3120    25.5280 c5         1 UXD      -0.095900
     11 C3         -18.3720    15.0270    26.9670 c5         1 UXD      -0.095900
     12 N2         -23.7830    11.5610    26.4240 nd         1 UXD      -0.526800
     13 H1         -24.4380    12.9690    27.7330 hn         1 UXD       0.321700
     14 H3         -20.1190    13.8870    27.6220 h1         1 UXD       0.049700
     15 H4         -22.4470    14.3870    27.2470 h4         1 UXD       0.172000
     16 H5         -22.5150    10.7050    25.0110 h4         1 UXD       0.056100
     17 H6         -18.8550    14.4400    23.7280 h1         1 UXD       0.049700
     18 H7         -17.9510    13.2950    24.7190 h1         1 UXD       0.049700
     19 H8         -16.8800    15.3450    25.3850 hc         1 UXD       0.053950
     20 H9         -18.3690    16.2710    25.2020 hc         1 UXD       0.053950
     21 H10        -17.7580    14.2260    27.3860 hc         1 UXD       0.053950
     22 H11        -18.2910    15.8910    27.6250 hc         1 UXD       0.053950
     23 H2         -20.4930    15.4140    26.8090 h1         1 UXD       0.049700
@<TRIPOS>BOND
     1     1     4 1   
     2     1    12 1   
     3     1    13 1   
     4     2     6 1   
     5     2    11 1   
     6     2    14 1   
     7     2    23 1   
     8     3     4 2   
     9     3     5 1   
    10     3     7 1   
    11     4    15 1   
    12     5    12 2   
    13     5    16 1   
    14     6     7 1   
    15     6     9 1   
    16     7     8 2   
    17     9    10 1   
    18     9    17 1   
    19     9    18 1   
    20    10    11 1   
    21    10    19 1   
    22    10    20 1   
    23    11    21 1   
    24    11    22 1   
@<TRIPOS>SUBSTRUCTURE
     1 UXD         1 TEMP              0 ****  ****    0 ROOT
