@<TRIPOS>MOLECULE
UXE
   79    83     1     0     0
SMALL
abcg2


@<TRIPOS>ATOM
      1 C10        -43.8420    31.5910    25.2080 ca         1 UXE      -0.150000
      2 C13        -45.1390    32.1150    25.2350 ca         1 UXE       0.257000
      3 C15        -44.9190    33.4920    27.2900 c3         1 UXE       0.182800
      4 C17        -43.8680    35.6430    28.0200 c6         1 UXE      -0.097900
      5 C20        -43.4470    36.5050    25.2930 c6         1 UXE       0.227300
      6 C22        -41.7220    37.9840    26.2370 ca         1 UXE       0.416900
      7 C24        -40.2050    39.3870    27.1780 ca         1 UXE       0.193900
      8 C26        -40.0540    39.1120    24.9510 ca         1 UXE       0.403900
      9 C28        -39.7860    38.9380    22.5040 c3         1 UXE       0.282100
     10 C02        -42.4790    26.0850    21.4240 c6         1 UXE      -0.048000
     11 C03        -43.3610    25.6100    20.2680 c3         1 UXE      -0.083100
     12 C04        -43.3360    26.5940    22.5900 c6         1 UXE      -0.067400
     13 C05        -44.0390    27.9070    22.2820 c6         1 UXE       0.169300
     14 C07        -43.7400    30.2080    21.6800 c3         1 UXE       0.121500
     15 C08        -44.2270    30.8320    22.9600 ca         1 UXE       0.296300
     16 C09        -43.3930    30.9510    24.0680 ca         1 UXE      -0.099000
     17 C12        -45.9030    31.9230    24.0760 ca         1 UXE       0.268900
     18 C16        -44.6550    34.9560    26.9040 c6         1 UXE       0.144000
     19 C18        -43.4940    37.0720    27.6640 c6         1 UXE       0.227300
     20 C19        -43.8530    35.0720    25.6140 c6         1 UXE      -0.097900
     21 C29        -41.0930    39.4940    21.9790 ca         1 UXE      -0.116300
     22 C30        -41.9310    38.6910    21.2120 ca         1 UXE      -0.099500
     23 C31        -43.1170    39.1930    20.6940 ca         1 UXE      -0.108500
     24 C32        -43.4820    40.5090    20.9420 ca         1 UXE      -0.106000
     25 C33        -42.6520    41.3170    21.7100 ca         1 UXE      -0.108500
     26 C34        -41.4660    40.8120    22.2250 ca         1 UXE      -0.099500
     27 C35        -41.1480    38.2490    24.9860 ca         1 UXE      -0.363000
     28 C37        -42.3270    28.5280    20.7190 c6         1 UXE       0.169300
     29 C38        -41.5690    27.2370    20.9800 c6         1 UXE      -0.067400
     30 N06        -43.0890    28.9330    21.8890 n3         1 UXE      -0.723600
     31 N11        -45.4660    31.3080    22.9890 nb         1 UXE      -0.645000
     32 N14        -45.6910    32.7450    26.3260 nu         1 UXE      -0.932200
     33 N21        -42.7610    37.1270    26.4090 nh         1 UXE      -0.780300
     34 N23        -41.2360    38.5840    27.3410 nb         1 UXE      -0.302000
     35 N25        -39.5720    39.6940    26.0650 nb         1 UXE      -0.295000
     36 N27        -39.4090    39.4160    23.8050 nu         1 UXE      -0.939100
     37 O36        -45.8850    35.6210    26.6710 oh         1 UXE      -0.661000
     38 H1         -43.1820    31.6790    26.0610 ha         1 UXE       0.117000
     39 H2         -45.4620    33.4820    28.2410 h1         1 UXE       0.058200
     40 H3         -43.9730    32.9860    27.4860 h1         1 UXE       0.058200
     41 H4         -44.4550    35.6510    28.9450 hc         1 UXE       0.057700
     42 H5         -42.9600    35.0710    28.2320 hc         1 UXE       0.057700
     43 H6         -42.7960    36.4680    24.4240 h1         1 UXE       0.058450
     44 H7         -44.3230    37.0990    25.0080 h1         1 UXE       0.058450
     45 H8         -39.8280    39.8580    28.0830 h5         1 UXE       0.038100
     46 H9         -39.8310    37.8440    22.4980 h1         1 UXE       0.054700
     47 H10        -38.9780    39.2070    21.8230 h1         1 UXE       0.054700
     48 H11        -42.2420    24.0820    22.2390 hc         1 UXE       0.032367
     49 H12        -40.9910    24.5380    21.0820 hc         1 UXE       0.032367
     50 H13        -40.9670    25.2030    22.7170 hc         1 UXE       0.032367
     51 H14        -44.0000    24.7820    20.5850 hc         1 UXE       0.032367
     52 H15        -44.0120    26.3920    19.8770 hc         1 UXE       0.032367
     53 H16        -42.7490    25.2520    19.4370 hc         1 UXE       0.032367
     54 H17        -42.6940    26.7420    23.4650 hc         1 UXE       0.045200
     55 H18        -44.0800    25.8410    22.8670 hc         1 UXE       0.045200
     56 H19        -44.5730    28.2430    23.1740 h1         1 UXE       0.032200
     57 H20        -44.8050    27.7580    21.5020 h1         1 UXE       0.032200
     58 H21        -43.0120    30.8820    21.2150 h1         1 UXE       0.046700
     59 H22        -44.5890    30.1390    20.9800 h1         1 UXE       0.046700
     60 H23        -42.3920    30.5410    24.0350 ha         1 UXE       0.134000
     61 H24        -46.9220    32.2990    24.0440 h4         1 UXE       0.015100
     62 H25        -42.8800    37.4980    28.4500 h1         1 UXE       0.058450
     63 H26        -44.3970    37.6900    27.5910 h1         1 UXE       0.058450
     64 H27        -44.4240    34.6850    24.7680 hc         1 UXE       0.057700
     65 H28        -42.9530    34.4570    25.6970 hc         1 UXE       0.057700
     66 H29        -41.6570    37.6590    21.0230 ha         1 UXE       0.113000
     67 H30        -43.7600    38.5540    20.1020 ha         1 UXE       0.114000
     68 H31        -44.4090    40.9030    20.5440 ha         1 UXE       0.114000
     69 H32        -42.9300    42.3440    21.9100 ha         1 UXE       0.114000
     70 H33        -40.8300    41.4490    22.8280 ha         1 UXE       0.113000
     71 H34        -41.5300    37.8220    24.0750 ha         1 UXE       0.132000
     72 H35        -41.6160    29.3230    20.4810 h1         1 UXE       0.032200
     73 H36        -42.9750    28.4190    19.8320 h1         1 UXE       0.032200
     74 H37        -41.0160    26.9530    20.0790 hc         1 UXE       0.045200
     75 H38        -40.8270    27.4240    21.7630 hc         1 UXE       0.045200
     76 H40        -46.5960    33.1540    26.1450 hn         1 UXE       0.470000
     77 H41        -38.6650    40.0890    23.8790 hn         1 UXE       0.506000
     78 H42        -46.3570    35.7000    27.5080 ho         1 UXE       0.442000
     79 C01        -41.6210    24.9120    21.8920 c3         1 UXE      -0.083100
@<TRIPOS>BOND
     1     1     2 ar  
     2     1    16 ar  
     3     1    38 1   
     4     2    17 ar  
     5     2    32 1   
     6     3    18 1   
     7     3    32 1   
     8     3    39 1   
     9     3    40 1   
    10     4    18 1   
    11     4    19 1   
    12     4    41 1   
    13     4    42 1   
    14     5    20 1   
    15     5    33 1   
    16     5    43 1   
    17     5    44 1   
    18     6    27 ar  
    19     6    33 1   
    20     6    34 ar  
    21     7    34 ar  
    22     7    35 ar  
    23     7    45 1   
    24     8    27 ar  
    25     8    35 ar  
    26     8    36 1   
    27     9    21 1   
    28     9    36 1   
    29     9    46 1   
    30     9    47 1   
    31    10    11 1   
    32    10    12 1   
    33    10    29 1   
    34    10    79 1   
    35    11    51 1   
    36    11    52 1   
    37    11    53 1   
    38    12    13 1   
    39    12    54 1   
    40    12    55 1   
    41    13    30 1   
    42    13    56 1   
    43    13    57 1   
    44    14    15 1   
    45    14    30 1   
    46    14    58 1   
    47    14    59 1   
    48    15    16 ar  
    49    15    31 ar  
    50    16    60 1   
    51    17    31 ar  
    52    17    61 1   
    53    18    20 1   
    54    18    37 1   
    55    19    33 1   
    56    19    62 1   
    57    19    63 1   
    58    20    64 1   
    59    20    65 1   
    60    21    22 ar  
    61    21    26 ar  
    62    22    23 ar  
    63    22    66 1   
    64    23    24 ar  
    65    23    67 1   
    66    24    25 ar  
    67    24    68 1   
    68    25    26 ar  
    69    25    69 1   
    70    26    70 1   
    71    27    71 1   
    72    28    29 1   
    73    28    30 1   
    74    28    72 1   
    75    28    73 1   
    76    29    74 1   
    77    29    75 1   
    78    32    76 1   
    79    36    77 1   
    80    37    78 1   
    81    48    79 1   
    82    49    79 1   
    83    50    79 1   
@<TRIPOS>SUBSTRUCTURE
     1 UXE         1 TEMP              0 ****  ****    0 ROOT
