@<TRIPOS>MOLECULE
UXE
   79    83     1     0     0
SMALL
No Charge or Current Charge


@<TRIPOS>ATOM
      1 C10        -43.7730    31.5120    24.6940 ca         1 UXE      -0.150000
      2 C13        -45.1120    31.8500    24.9620 ca         1 UXE       0.257000
      3 C15        -44.5660    33.4120    26.9890 c3         1 UXE       0.182800
      4 C17        -44.2540    35.9280    27.4630 c6         1 UXE      -0.097900
      5 C20        -42.3370    36.2110    25.2460 c6         1 UXE       0.227300
      6 C22        -41.6000    38.3680    26.3390 ca         1 UXE       0.416900
      7 C24        -40.7090    40.1210    27.5220 ca         1 UXE       0.193900
      8 C26        -40.0920    39.9310    25.3370 ca         1 UXE       0.403900
      9 C28        -39.5520    40.1960    22.8540 c3         1 UXE       0.282100
     10 C02        -42.7220    25.3640    21.5580 c6         1 UXE      -0.048000
     11 C03        -43.9090    24.6360    20.8480 c3         1 UXE      -0.083100
     12 C04        -43.1990    26.0870    22.8540 c6         1 UXE      -0.067400
     13 C05        -44.0990    27.3130    22.5540 c6         1 UXE       0.169300
     14 C07        -44.2220    29.5240    21.4270 c3         1 UXE       0.121500
     15 C08        -44.5260    30.3490    22.6880 ca         1 UXE       0.296300
     16 C09        -43.4810    30.7580    23.5420 ca         1 UXE      -0.099000
     17 C12        -46.0990    31.3840    24.0490 ca         1 UXE       0.268900
     18 C16        -44.1930    34.8210    26.3760 c6         1 UXE       0.144000
     19 C18        -43.8050    37.3070    26.9250 c6         1 UXE       0.227300
     20 C19        -42.7720    34.8130    25.7490 c6         1 UXE      -0.097900
     21 C29        -40.9110    40.7220    22.4000 ca         1 UXE      -0.116300
     22 C30        -41.9120    39.8310    21.9570 ca         1 UXE      -0.099500
     23 C31        -43.1630    40.3180    21.5390 ca         1 UXE      -0.108500
     24 C32        -43.4230    41.6990    21.5560 ca         1 UXE      -0.106000
     25 C33        -42.4300    42.5930    21.9910 ca         1 UXE      -0.108500
     26 C34        -41.1790    42.1070    22.4100 ca         1 UXE      -0.099500
     27 C35        -40.8850    38.7900    25.2090 ca         1 UXE      -0.363000
     28 C37        -43.0010    27.6460    20.3750 c6         1 UXE       0.169300
     29 C38        -42.0730    26.4280    20.6220 c6         1 UXE      -0.067400
     30 N06        -43.4190    28.2870    21.6520 n3         1 UXE      -0.723600
     31 N11        -45.8250    30.6570    22.9350 nb         1 UXE      -0.645000
     32 N14        -45.4630    32.6010    26.1080 nu         1 UXE      -0.932200
     33 N21        -42.4400    37.2320    26.3260 nh         1 UXE      -0.780300
     34 N23        -41.5130    39.0410    27.5030 nb         1 UXE      -0.302000
     35 N25        -39.9880    40.6000    26.4910 nb         1 UXE      -0.295000
     36 N27        -39.3440    40.4390    24.2910 nu         1 UXE      -0.939100
     37 O36        -45.1610    35.0770    25.3580 oh         1 UXE      -0.661000
     38 H1         -42.9710    31.8070    25.3630 ha         1 UXE       0.117000
     39 H2         -45.0920    33.5910    27.9370 h1         1 UXE       0.058200
     40 H3         -43.6540    32.8570    27.2480 h1         1 UXE       0.058200
     41 H4         -45.2730    36.0100    27.8640 hc         1 UXE       0.057700
     42 H5         -43.6100    35.6510    28.3090 hc         1 UXE       0.057700
     43 H6         -41.3000    36.1280    24.8880 h1         1 UXE       0.058450
     44 H7         -42.9590    36.5040    24.3860 h1         1 UXE       0.058450
     45 H8         -40.6350    40.6610    28.4650 h5         1 UXE       0.038100
     46 H9         -39.4730    39.1220    22.6350 h1         1 UXE       0.054700
     47 H10        -38.7670    40.7010    22.2740 h1         1 UXE       0.054700
     48 H11        -42.1010    23.5100    22.5880 hc         1 UXE       0.032367
     49 H12        -41.3110    23.7500    21.0220 hc         1 UXE       0.032367
     50 H13        -40.8020    24.6980    22.4240 hc         1 UXE       0.032367
     51 H14        -44.3620    23.8820    21.5030 hc         1 UXE       0.032367
     52 H15        -44.7070    25.3250    20.5510 hc         1 UXE       0.032367
     53 H16        -43.5740    24.1220    19.9390 hc         1 UXE       0.032367
     54 H17        -42.3270    26.4260    23.4310 hc         1 UXE       0.045200
     55 H18        -43.7400    25.3850    23.5030 hc         1 UXE       0.045200
     56 H19        -44.3540    27.7910    23.5110 h1         1 UXE       0.032200
     57 H20        -45.0460    26.9750    22.1070 h1         1 UXE       0.032200
     58 H21        -43.6860    30.1850    20.7320 h1         1 UXE       0.046700
     59 H22        -45.1700    29.2620    20.9360 h1         1 UXE       0.046700
     60 H23        -42.4560    30.4790    23.3110 ha         1 UXE       0.134000
     61 H24        -47.1510    31.6120    24.2170 h4         1 UXE       0.015100
     62 H25        -43.8420    38.0260    27.7570 h1         1 UXE       0.058450
     63 H26        -44.5270    37.6560    26.1710 h1         1 UXE       0.058450
     64 H27        -42.7270    34.1080    24.9100 hc         1 UXE       0.057700
     65 H28        -42.0420    34.4610    26.4900 hc         1 UXE       0.057700
     66 H29        -41.7220    38.7600    21.9380 ha         1 UXE       0.113000
     67 H30        -43.9300    39.6250    21.2020 ha         1 UXE       0.114000
     68 H31        -44.3910    42.0750    21.2330 ha         1 UXE       0.114000
     69 H32        -42.6300    43.6620    22.0040 ha         1 UXE       0.114000
     70 H33        -40.4170    42.8060    22.7460 ha         1 UXE       0.113000
     71 H34        -40.9520    38.2630    24.2670 ha         1 UXE       0.132000
     72 H35        -42.4600    28.3720    19.7500 h1         1 UXE       0.032200
     73 H36        -43.8820    27.3280    19.8000 h1         1 UXE       0.032200
     74 H37        -41.8010    25.9740    19.6600 hc         1 UXE       0.045200
     75 H38        -41.1340    26.7880    21.0650 hc         1 UXE       0.045200
     76 H40        -46.4370    32.5020    26.4180 hn         1 UXE       0.470000
     77 H41        -38.8060    41.2700    24.5360 hn         1 UXE       0.506000
     78 H42        -45.5680    34.1780    25.2660 ho         1 UXE       0.442000
     79 C01        -41.6750    24.2670    21.9180 c3         1 UXE      -0.083100
@<TRIPOS>BOND
     1     1     2 ar  
     2     1    16 ar  
     3     1    38 1   
     4     2    17 ar  
     5     2    32 1   
     6     3    18 1   
     7     3    32 1   
     8     3    39 1   
     9     3    40 1   
    10     4    18 1   
    11     4    19 1   
    12     4    41 1   
    13     4    42 1   
    14     5    20 1   
    15     5    33 1   
    16     5    43 1   
    17     5    44 1   
    18     6    27 ar  
    19     6    33 1   
    20     6    34 ar  
    21     7    34 ar  
    22     7    35 ar  
    23     7    45 1   
    24     8    27 ar  
    25     8    35 ar  
    26     8    36 1   
    27     9    21 1   
    28     9    36 1   
    29     9    46 1   
    30     9    47 1   
    31    10    11 1   
    32    10    12 1   
    33    10    29 1   
    34    10    79 1   
    35    11    51 1   
    36    11    52 1   
    37    11    53 1   
    38    12    13 1   
    39    12    54 1   
    40    12    55 1   
    41    13    30 1   
    42    13    56 1   
    43    13    57 1   
    44    14    15 1   
    45    14    30 1   
    46    14    58 1   
    47    14    59 1   
    48    15    16 ar  
    49    15    31 ar  
    50    16    60 1   
    51    17    31 ar  
    52    17    61 1   
    53    18    20 1   
    54    18    37 1   
    55    19    33 1   
    56    19    62 1   
    57    19    63 1   
    58    20    64 1   
    59    20    65 1   
    60    21    22 ar  
    61    21    26 ar  
    62    22    23 ar  
    63    22    66 1   
    64    23    24 ar  
    65    23    67 1   
    66    24    25 ar  
    67    24    68 1   
    68    25    26 ar  
    69    25    69 1   
    70    26    70 1   
    71    27    71 1   
    72    28    29 1   
    73    28    30 1   
    74    28    72 1   
    75    28    73 1   
    76    29    74 1   
    77    29    75 1   
    78    32    76 1   
    79    36    77 1   
    80    37    78 1   
    81    48    79 1   
    82    49    79 1   
    83    50    79 1   
@<TRIPOS>SUBSTRUCTURE
     1 UXE         1 TEMP              0 ****  ****    0 ROOT
