@<TRIPOS>MOLECULE
UXG
   35    37     1     0     0
SMALL
abcg2


@<TRIPOS>ATOM
      1 C4          -7.5880     3.4950    15.8900 ca         1 UXG      -0.080800
      2 C5          -8.8440     4.0930    15.8550 ca         1 UXG      -0.095000
      3 C6          -9.9730     3.3850    16.2480 ca         1 UXG      -0.114250
      4 C7          -9.8600     2.0710    16.6840 ca         1 UXG      -0.108000
      5 C8          -8.6090     1.4690    16.7240 ca         1 UXG      -0.114250
      6 C10         -5.7620     4.9460    16.7270 ca         1 UXG      -0.080800
      7 C13         -4.7480     6.1570    19.0330 ca         1 UXG      -0.108000
      8 C15         -6.2650     6.1700    17.1620 ca         1 UXG      -0.095000
      9 N           -6.6120     5.2160    14.4680 nq         1 UXG      -0.711600
     10 C           -6.1910     5.8300    12.5150 cy         1 UXG       0.135300
     11 O           -5.4710     5.4620    11.3800 oh         1 UXG      -0.645000
     12 C1          -5.4700     5.9180    13.8720 cy         1 UXG       0.128300
     13 C11         -4.7430     4.3410    17.4540 ca         1 UXG      -0.095000
     14 C12         -4.2400     4.9390    18.6030 ca         1 UXG      -0.114250
     15 C14         -5.7610     6.7720    18.3060 ca         1 UXG      -0.114250
     16 C2          -7.0120     4.7060    13.1510 cy         1 UXG       0.128300
     17 C3          -6.3360     4.2580    15.5050 c3         1 UXG       0.275100
     18 C9          -7.4840     2.1770    16.3250 ca         1 UXG      -0.095000
     19 H1          -8.9430     5.1160    15.5140 ha         1 UXG       0.117000
     20 H2         -10.9440     3.8610    16.2080 ha         1 UXG       0.111000
     21 H3         -10.7410     1.5200    16.9870 ha         1 UXG       0.111000
     22 H4          -8.5080     0.4440    17.0580 ha         1 UXG       0.111000
     23 H5          -4.3550     6.6280    19.9250 ha         1 UXG       0.111000
     24 H6          -7.0490     6.6560    16.5950 ha         1 UXG       0.117000
     25 H8          -6.8060     6.7190    12.3410 h1         1 UXG       0.050700
     26 H9          -5.0710     6.2510    11.0020 ho         1 UXG       0.449000
     27 H10         -4.5510     5.3150    13.8640 h1         1 UXG       0.059200
     28 H11         -5.2490     6.9020    14.2920 h1         1 UXG       0.059200
     29 H12         -4.3350     3.3920    17.1230 ha         1 UXG       0.117000
     30 H13         -3.4470     4.4540    19.1590 ha         1 UXG       0.111000
     31 H14         -6.1590     7.7250    18.6300 ha         1 UXG       0.111000
     32 H15         -8.0870     4.6710    12.9630 h1         1 UXG       0.059200
     33 H16         -6.5760     3.7240    12.9220 h1         1 UXG       0.059200
     34 H17         -5.5930     3.5150    15.1630 h1         1 UXG       0.032700
     35 H18         -6.5120     1.6990    16.3570 ha         1 UXG       0.117000
@<TRIPOS>BOND
     1     1     2 ar  
     2     1    17 1   
     3     1    18 ar  
     4     2     3 ar  
     5     2    19 1   
     6     3     4 ar  
     7     3    20 1   
     8     4     5 ar  
     9     4    21 1   
    10     5    18 ar  
    11     5    22 1   
    12     6     8 ar  
    13     6    13 ar  
    14     6    17 1   
    15     7    14 ar  
    16     7    15 ar  
    17     7    23 1   
    18     8    15 ar  
    19     8    24 1   
    20     9    12 1   
    21     9    16 1   
    22     9    17 1   
    23    10    11 1   
    24    10    12 1   
    25    10    16 1   
    26    10    25 1   
    27    11    26 1   
    28    12    27 1   
    29    12    28 1   
    30    13    14 ar  
    31    13    29 1   
    32    14    30 1   
    33    15    31 1   
    34    16    32 1   
    35    16    33 1   
    36    17    34 1   
    37    18    35 1   
@<TRIPOS>SUBSTRUCTURE
     1 UXG         1 TEMP              0 ****  ****    0 ROOT
