@<TRIPOS>MOLECULE
UXG
   35    37     1     0     0
SMALL
No Charge or Current Charge


@<TRIPOS>ATOM
      1 C4          -7.6120     3.4560    15.9480 ca         1 UXG      -0.080800
      2 C5          -8.8540     4.1230    16.0040 ca         1 UXG      -0.095000
      3 C6         -10.0230     3.4260    16.3540 ca         1 UXG      -0.114250
      4 C7          -9.9620     2.0550    16.6530 ca         1 UXG      -0.108000
      5 C8          -8.7290     1.3820    16.6030 ca         1 UXG      -0.114250
      6 C10         -5.7660     4.9500    16.7890 ca         1 UXG      -0.080800
      7 C13         -4.7200     6.2970    19.0410 ca         1 UXG      -0.108000
      8 C15         -6.2850     6.2030    17.1780 ca         1 UXG      -0.095000
      9 N           -6.4970     5.0720    14.4030 nq         1 UXG      -0.711600
     10 C           -6.2630     5.8620    12.5100 cy         1 UXG       0.135300
     11 O           -5.6360     5.8090    11.2260 oh         1 UXG      -0.645000
     12 C1          -5.3270     5.7510    13.7680 cy         1 UXG       0.128300
     13 C11         -4.7200     4.3780    17.5430 ca         1 UXG      -0.095000
     14 C12         -4.1990     5.0490    18.6630 ca         1 UXG      -0.114250
     15 C14         -5.7640     6.8740    18.2980 ca         1 UXG      -0.114250
     16 C2          -6.8660     4.5220    13.0620 cy         1 UXG       0.128300
     17 C3          -6.3290     4.2040    15.5770 c3         1 UXG       0.275100
     18 C9          -7.5600     2.0800    16.2530 ca         1 UXG      -0.095000
     19 H1          -8.9130     5.1840    15.7720 ha         1 UXG       0.117000
     20 H2         -10.9760     3.9480    16.3930 ha         1 UXG       0.111000
     21 H3         -10.8660     1.5150    16.9240 ha         1 UXG       0.111000
     22 H4          -8.6800     0.3210    16.8360 ha         1 UXG       0.111000
     23 H5          -4.3170     6.8160    19.9080 ha         1 UXG       0.111000
     24 H6          -7.0910     6.6590    16.6090 ha         1 UXG       0.117000
     25 H8          -6.9630     6.7050    12.5590 h1         1 UXG       0.050700
     26 H9          -5.1880     6.6720    11.0810 ho         1 UXG       0.449000
     27 H10         -4.4470     5.1140    13.6120 h1         1 UXG       0.059200
     28 H11         -5.0280     6.7100    14.2080 h1         1 UXG       0.059200
     29 H12         -4.3100     3.4100    17.2610 ha         1 UXG       0.117000
     30 H13         -3.3920     4.6000    19.2390 ha         1 UXG       0.111000
     31 H14         -6.1690     7.8410    18.5900 ha         1 UXG       0.111000
     32 H15         -7.9370     4.3850    12.8740 h1         1 UXG       0.059200
     33 H16         -6.3090     3.6260    12.7570 h1         1 UXG       0.059200
     34 H17         -5.5860     3.4470    15.2890 h1         1 UXG       0.032700
     35 H18         -6.6100     1.5490    16.2200 ha         1 UXG       0.117000
@<TRIPOS>BOND
     1     1     2 ar  
     2     1    17 1   
     3     1    18 ar  
     4     2     3 ar  
     5     2    19 1   
     6     3     4 ar  
     7     3    20 1   
     8     4     5 ar  
     9     4    21 1   
    10     5    18 ar  
    11     5    22 1   
    12     6     8 ar  
    13     6    13 ar  
    14     6    17 1   
    15     7    14 ar  
    16     7    15 ar  
    17     7    23 1   
    18     8    15 ar  
    19     8    24 1   
    20     9    12 1   
    21     9    16 1   
    22     9    17 1   
    23    10    11 1   
    24    10    12 1   
    25    10    16 1   
    26    10    25 1   
    27    11    26 1   
    28    12    27 1   
    29    12    28 1   
    30    13    14 ar  
    31    13    29 1   
    32    14    30 1   
    33    15    31 1   
    34    16    32 1   
    35    16    33 1   
    36    17    34 1   
    37    18    35 1   
@<TRIPOS>SUBSTRUCTURE
     1 UXG         1 TEMP              0 ****  ****    0 ROOT
