@<TRIPOS>MOLECULE
UXH
   30    32     1     0     0
SMALL
No Charge or Current Charge


@<TRIPOS>ATOM
      1 N1           1.5770    -1.3720     0.0410 nb         1 UXH      -0.641000
      2 Cl1         -3.6290    -2.2140    -0.0380 cl         1 UXH      -0.211000
      3 C2           0.2800    -0.9270     0.0650 ca         1 UXH       0.208000
      4 C3           0.0450     0.4430     0.0530 ca         1 UXH      -0.035000
      5 C4           1.0490     1.3830    -0.0270 ca         1 UXH      -0.131000
      6 C5           2.3810     0.9530    -0.0580 ca         1 UXH       0.002000
      7 C6           2.6110    -0.4510    -0.0140 ca         1 UXH       0.257500
      8 C7          -0.8880    -1.7550     0.0770 ca         1 UXH       0.397000
      9 C8          -2.1890    -1.1660     0.0250 ca         1 UXH      -0.050000
     10 C9          -2.3510     0.2470    -0.0050 ca         1 UXH       0.405000
     11 C10         -1.1950     1.0470     0.0830 ca         1 UXH      -0.131200
     12 N11         -0.7650    -3.1380     0.0970 nv         1 UXH      -1.065000
     13 N13         -3.6010     0.8090    -0.1080 nv         1 UXH      -1.085000
     14 C14          4.0560    -0.9600    -0.0390 c          1 UXH       0.514600
     15 N15          4.2510    -2.3030     0.0040 nt         1 UXH      -0.589000
     16 O16          5.0320    -0.2250    -0.0960 o          1 UXH      -0.604100
     17 C17          0.4210     2.7350    -0.0730 c          1 UXH       0.317800
     18 N18         -0.9630     2.4640    -0.0380 n          1 UXH      -0.187600
     19 O19          0.9780     3.8210    -0.1140 o          1 UXH      -0.323000
     20 C20         -1.9830     3.5150     0.1360 c3         1 UXH       0.065900
     21 H5           3.2020     1.6620    -0.1150 ha         1 UXH       0.166000
     22 HN11         0.1580    -3.5330    -0.0750 hn         1 UXH       0.485500
     23 HN1A        -1.5740    -3.7100    -0.1400 hn         1 UXH       0.485500
     24 HN13        -4.3840     0.1970    -0.3300 hn         1 UXH       0.480500
     25 HN1B        -3.6820     1.7800    -0.3930 hn         1 UXH       0.480500
     26 HN15         3.4470    -2.9150     0.0510 hn         1 UXH       0.324500
     27 HN1C         5.1880    -2.6770    -0.0110 hn         1 UXH       0.324500
     28 H20         -2.5850     3.5990    -0.7780 h1         1 UXH       0.046700
     29 H20A        -2.6320     3.2650     0.9840 h1         1 UXH       0.046700
     30 H20B        -1.5030     4.4810     0.3340 h1         1 UXH       0.046700
@<TRIPOS>BOND
     1     1     3 ar  
     2     1     7 ar  
     3     2     9 1   
     4     3     4 ar  
     5     3     8 ar  
     6     4     5 ar  
     7     4    11 ar  
     8     5     6 ar  
     9     5    17 1   
    10     6     7 ar  
    11     6    21 1   
    12     7    14 1   
    13     8     9 ar  
    14     8    12 1   
    15     9    10 ar  
    16    10    11 ar  
    17    10    13 1   
    18    11    18 1   
    19    12    22 1   
    20    12    23 1   
    21    13    24 1   
    22    13    25 1   
    23    14    15 1   
    24    14    16 2   
    25    15    26 1   
    26    15    27 1   
    27    17    18 1   
    28    17    19 2   
    29    18    20 1   
    30    20    28 1   
    31    20    29 1   
    32    20    30 1   
@<TRIPOS>SUBSTRUCTURE
     1 UXH         1 TEMP              0 ****  ****    0 ROOT
