@<TRIPOS>MOLECULE
UXH
   30    32     1     0     0
SMALL
abcg2


@<TRIPOS>ATOM
      1 N1           1.5690    -1.3310     0.0020 nb         1 UXH      -0.641000
      2 CL1         -3.4740    -2.1810     0.0360 cl         1 UXH      -0.211000
      3 C2           0.3100    -0.9010     0.0140 ca         1 UXH       0.208000
      4 C3           0.0490     0.4600     0.0160 ca         1 UXH      -0.035000
      5 C4           1.0730     1.4030     0.0100 ca         1 UXH      -0.131000
      6 C5           2.3680     0.9570    -0.0010 ca         1 UXH       0.002000
      7 C6           2.5540    -0.4450    -0.0050 ca         1 UXH       0.257500
      8 C7          -0.8380    -1.7690     0.0170 ca         1 UXH       0.397000
      9 C8          -2.0770    -1.1480     0.0180 ca         1 UXH      -0.050000
     10 C9          -2.3190     0.2770     0.0110 ca         1 UXH       0.405000
     11 C10         -1.1870     1.0760     0.0170 ca         1 UXH      -0.131200
     12 N11         -0.6550    -3.1090     0.0630 nv         1 UXH      -1.065000
     13 N13         -3.5910     0.7440     0.0460 nv         1 UXH      -1.085000
     14 C14          3.9580    -0.9780    -0.0190 c          1 UXH       0.514600
     15 N15          4.0590    -2.3090    -0.0170 nt         1 UXH      -0.589000
     16 O16          4.9150    -0.2150    -0.0330 o          1 UXH      -0.604100
     17 C17          0.4110     2.7310     0.0120 c          1 UXH       0.317800
     18 N18         -0.9400     2.4650     0.0180 n          1 UXH      -0.187600
     19 O19          0.9250     3.8360     0.0090 o          1 UXH      -0.323000
     20 C20         -1.9450     3.4970     0.0230 c3         1 UXH       0.065900
     21 H5           3.2190     1.6230    -0.0080 ha         1 UXH       0.166000
     22 HN11         0.2690    -3.4440    -0.1560 hn         1 UXH       0.485500
     23 HN1A        -1.4030    -3.7170    -0.2260 hn         1 UXH       0.485500
     24 HN13        -4.3410     0.1290    -0.2210 hn         1 UXH       0.480500
     25 HN1B        -3.7610     1.7080    -0.1800 hn         1 UXH       0.480500
     26 HN15         3.2370    -2.8880    -0.0000 hn         1 UXH       0.324500
     27 HN1C         4.9630    -2.7520    -0.0210 hn         1 UXH       0.324500
     28 H20         -2.5410     3.4730    -0.8900 h1         1 UXH       0.046700
     29 H20A        -2.6010     3.4010     0.8880 h1         1 UXH       0.046700
     30 H20B        -1.4540     4.4650     0.0770 h1         1 UXH       0.046700
@<TRIPOS>BOND
     1     1     3 ar  
     2     1     7 ar  
     3     2     9 1   
     4     3     4 ar  
     5     3     8 ar  
     6     4     5 ar  
     7     4    11 ar  
     8     5     6 ar  
     9     5    17 1   
    10     6     7 ar  
    11     6    21 1   
    12     7    14 1   
    13     8     9 ar  
    14     8    12 1   
    15     9    10 ar  
    16    10    11 ar  
    17    10    13 1   
    18    11    18 1   
    19    12    22 1   
    20    12    23 1   
    21    13    24 1   
    22    13    25 1   
    23    14    15 1   
    24    14    16 2   
    25    15    26 1   
    26    15    27 1   
    27    17    18 1   
    28    17    19 2   
    29    18    20 1   
    30    20    28 1   
    31    20    29 1   
    32    20    30 1   
@<TRIPOS>SUBSTRUCTURE
     1 UXH         1 TEMP              0 ****  ****    0 ROOT
