@<TRIPOS>MOLECULE
UXJ
   27    28     1     0     0
SMALL
bcc


@<TRIPOS>ATOM
      1 N1         -18.2840    16.1630    26.5780 na         1 UXJ      -0.002600
      2 C4         -18.7560    12.5770    26.9910 c3         1 UXJ       0.319100
      3 C5         -21.0960    12.0850    26.3660 ca         1 UXJ       0.173600
      4 C6         -21.6490    13.0480    27.2190 ca         1 UXJ      -0.192000
      5 C7         -23.0260    13.1970    27.3390 ca         1 UXJ      -0.096000
      6 C8         -23.8980    12.3950    26.6220 ca         1 UXJ      -0.165000
      7 C10        -22.0120    11.2960    25.6560 ca         1 UXJ       0.039900
      8 N          -18.0700    15.8030    25.3160 nc         1 UXJ      -0.524800
      9 C          -18.0440    13.7040    24.0420 c3         1 UXJ      -0.119400
     10 C1         -18.2150    14.4890    25.2970 cd         1 UXJ       0.344600
     11 C2         -18.5660    15.1230    27.3770 cc         1 UXJ      -0.128300
     12 C3         -18.5320    13.9990    26.5840 cd         1 UXJ      -0.292600
     13 C9         -23.3740    11.4280    25.7680 ca         1 UXJ      -0.118000
     14 F          -21.5070    10.3560    24.8250 f          1 UXJ      -0.160900
     15 N2         -19.7550    11.9010    26.1980 nu         1 UXJ      -0.778600
     16 H1         -18.2280    17.1340    26.8400 hn         1 UXJ       0.322700
     17 H2         -19.0000    12.5350    28.0600 h1         1 UXJ       0.043200
     18 H3         -17.8340    12.0050    26.8740 h1         1 UXJ       0.043200
     19 H4         -20.9990    13.6950    27.7900 ha         1 UXJ       0.133000
     20 H5         -23.4130    13.9550    28.0080 ha         1 UXJ       0.128000
     21 H6         -24.9690    12.5110    26.7180 ha         1 UXJ       0.134000
     22 H7         -17.6760    14.3370    23.2360 hc         1 UXJ       0.048367
     23 H8         -17.3340    12.8870    24.1810 hc         1 UXJ       0.048367
     24 H9         -18.9850    13.2580    23.7200 hc         1 UXJ       0.048367
     25 H10        -18.7640    15.2480    28.4300 h4         1 UXJ       0.169000
     26 H11        -24.0200    10.7790    25.1900 ha         1 UXJ       0.144000
     27 H12        -19.4590    11.0620    25.7320 hn         1 UXJ       0.438800
@<TRIPOS>BOND
     1     1     8 1   
     2     1    11 1   
     3     1    16 1   
     4     2    12 1   
     5     2    15 1   
     6     2    17 1   
     7     2    18 1   
     8     3     4 ar  
     9     3     7 ar  
    10     3    15 1   
    11     4     5 ar  
    12     4    19 1   
    13     5     6 ar  
    14     5    20 1   
    15     6    13 ar  
    16     6    21 1   
    17     7    13 ar  
    18     7    14 1   
    19     8    10 2   
    20     9    10 1   
    21     9    22 1   
    22     9    23 1   
    23     9    24 1   
    24    10    12 1   
    25    11    12 2   
    26    11    25 1   
    27    13    26 1   
    28    15    27 1   
@<TRIPOS>SUBSTRUCTURE
     1 UXJ         1 TEMP              0 ****  ****    0 ROOT
