@<TRIPOS>MOLECULE
UXJ
   27    28     1     0     0
SMALL
No Charge or Current Charge


@<TRIPOS>ATOM
      1 N1         -19.0360    16.0210    25.9660 na         1 UXJ      -0.002200
      2 C4         -18.6180    12.5350    26.9800 c3         1 UXJ       0.319100
      3 C5         -21.0980    12.0710    26.5980 ca         1 UXJ       0.312000
      4 C6         -21.5820    12.5890    27.8140 ca         1 UXJ      -0.174000
      5 C7         -22.9430    12.9130    27.9600 ca         1 UXJ      -0.078000
      6 C8         -23.8330    12.7160    26.8900 ca         1 UXJ      -0.147000
      7 C10        -22.0030    11.8690    25.5280 ca         1 UXJ       0.075000
      8 N          -18.3500    15.5730    24.8500 nc         1 UXJ      -0.524800
      9 C          -17.4220    13.4140    24.1440 c3         1 UXJ      -0.119400
     10 C1         -18.1500    14.2970    25.1220 cd         1 UXJ       0.279300
     11 C2         -19.2530    15.0290    26.9190 cc         1 UXJ      -0.161000
     12 C3         -18.6810    13.9110    26.3740 cd         1 UXJ      -0.227300
     13 C9         -23.3630    12.1920    25.6730 ca         1 UXJ      -0.100000
     14 F          -21.5690    11.3650    24.3460 f          1 UXJ      -0.196000
     15 N2         -19.7390    11.7480    26.4530 nu         1 UXJ      -0.972200
     16 H1         -19.3340    16.9930    26.0440 hn         1 UXJ       0.373000
     17 H2         -18.6710    12.6080    28.0750 h1         1 UXJ       0.043200
     18 H3         -17.6620    12.0600    26.7200 h1         1 UXJ       0.043200
     19 H4         -20.9080    12.7400    28.6510 ha         1 UXJ       0.115000
     20 H5         -23.3080    13.3150    28.9030 ha         1 UXJ       0.110000
     21 H6         -24.8850    12.9670    27.0040 ha         1 UXJ       0.116000
     22 H7         -17.1030    13.9690    23.2540 hc         1 UXJ       0.048367
     23 H8         -16.5270    12.9790    24.6050 hc         1 UXJ       0.048367
     24 H9         -18.0650    12.5910    23.8120 hc         1 UXJ       0.048367
     25 H10        -19.7730    15.1980    27.8550 h4         1 UXJ       0.151000
     26 H11        -24.0490    12.0370    24.8440 ha         1 UXJ       0.126000
     27 H12        -19.5400    11.2680    25.5750 hn         1 UXJ       0.494000
@<TRIPOS>BOND
     1     1     8 1   
     2     1    11 1   
     3     1    16 1   
     4     2    12 1   
     5     2    15 1   
     6     2    17 1   
     7     2    18 1   
     8     3     4 ar  
     9     3     7 ar  
    10     3    15 1   
    11     4     5 ar  
    12     4    19 1   
    13     5     6 ar  
    14     5    20 1   
    15     6    13 ar  
    16     6    21 1   
    17     7    13 ar  
    18     7    14 1   
    19     8    10 2   
    20     9    10 1   
    21     9    22 1   
    22     9    23 1   
    23     9    24 1   
    24    10    12 1   
    25    11    12 2   
    26    11    25 1   
    27    13    26 1   
    28    15    27 1   
@<TRIPOS>SUBSTRUCTURE
     1 UXJ         1 TEMP              0 ****  ****    0 ROOT
