@<TRIPOS>MOLECULE
UXK
   83    88     1     0     0
SMALL
abcg2


@<TRIPOS>ATOM
      1 C10        -43.7100    31.5920    23.2290 ca         1 UXK      -0.127000
      2 C13        -44.9700    32.0740    23.6110 ca         1 UXK       0.246000
      3 C15        -44.2380    33.5080    25.4470 c6         1 UXK       0.175800
      4 C17        -43.3950    35.2270    27.0560 c6         1 UXK      -0.095900
      5 C20        -43.1850    37.2150    24.9780 c6         1 UXK       0.227300
      6 C22        -41.5420    38.2970    26.4690 ca         1 UXK       0.419900
      7 C24        -40.1890    39.3640    27.9480 ca         1 UXK       0.193900
      8 C26        -39.9750    39.9700    25.7920 ca         1 UXK       0.403900
      9 C28        -39.5660    40.6750    23.4640 c3         1 UXK       0.283100
     10 C02        -42.4990    24.9880    22.5350 c6         1 UXK      -0.047000
     11 C03        -41.2090    24.3180    23.0020 c3         1 UXK      -0.083100
     12 C04        -42.8890    26.0890    23.5280 c6         1 UXK      -0.067400
     13 C05        -44.0210    26.9720    23.0240 c6         1 UXK       0.169800
     14 C07        -44.7090    28.4910    21.2990 c3         1 UXK       0.119500
     15 C08        -44.7700    29.7380    22.1420 ca         1 UXK       0.312300
     16 C09        -43.6120    30.4270    22.5010 ca         1 UXK      -0.109000
     17 C12        -46.0640    31.2990    23.2160 ca         1 UXK       0.278900
     18 C16        -44.1440    35.0000    25.7500 c6         1 UXK       0.179000
     19 C18        -43.1800    36.7030    27.3570 c6         1 UXK       0.227300
     20 C19        -43.3940    35.7460    24.6430 c6         1 UXK      -0.095900
     21 C29        -40.9130    41.1870    23.0000 ca         1 UXK      -0.111300
     22 C30        -41.5410    40.5900    21.9130 ca         1 UXK      -0.099000
     23 C31        -42.7610    41.0630    21.4480 ca         1 UXK      -0.110000
     24 C32        -43.3720    42.1410    22.0740 ca         1 UXK      -0.107000
     25 C33        -42.7520    42.7410    23.1630 ca         1 UXK      -0.110000
     26 C34        -41.5310    42.2670    23.6230 ca         1 UXK      -0.099000
     27 C35        -40.9630    39.0530    25.4390 ca         1 UXK      -0.367000
     28 C37        -46.3390    35.2720    24.8810 c6         1 UXK       0.154600
     29 C38        -46.4330    33.7950    24.5390 c6         1 UXK       0.158800
     30 C39        -43.4190    26.5480    20.7420 c6         1 UXK       0.169800
     31 C40        -42.2690    25.6500    21.1710 c6         1 UXK      -0.067400
     32 N06        -43.6880    27.5670    21.7410 n3         1 UXK      -0.724600
     33 N11        -45.9640    30.1810    22.5040 nb         1 UXK      -0.654000
     34 N14        -45.1040    33.2710    24.3020 nh         1 UXK      -0.787400
     35 N21        -42.5110    37.3730    26.2540 nh         1 UXK      -0.782300
     36 N23        -41.1310    38.4670    27.7410 nb         1 UXK      -0.302000
     37 N25        -39.5830    40.1350    27.0700 nb         1 UXK      -0.297000
     38 N27        -39.3520    40.7480    24.8830 nu         1 UXK      -0.942100
     39 O36        -45.4510    35.5230    25.9450 os         1 UXK      -0.451000
     40 H1         -42.8090    32.1380    23.4790 ha         1 UXK       0.119000
     41 H2         -44.6230    32.9810    26.3350 h1         1 UXK       0.050700
     42 H3         -43.2370    33.1240    25.2590 h1         1 UXK       0.050700
     43 H4         -43.9410    34.7710    27.8860 hc         1 UXK       0.058950
     44 H5         -42.4250    34.7250    26.9940 hc         1 UXK       0.058950
     45 H6         -42.6040    37.6630    24.1790 h1         1 UXK       0.059200
     46 H7         -44.1440    37.7450    25.0010 h1         1 UXK       0.059200
     47 H8         -39.8750    39.4850    28.9820 h5         1 UXK       0.038100
     48 H9         -39.4290    39.6490    23.1050 h1         1 UXK       0.052700
     49 H10        -38.7760    41.2640    22.9950 h1         1 UXK       0.052700
     50 H11        -43.7510    23.4510    23.4170 hc         1 UXK       0.032700
     51 H12        -44.5560    24.3280    22.1230 hc         1 UXK       0.032700
     52 H13        -43.3160    23.1420    21.7370 hc         1 UXK       0.032700
     53 H14        -41.3370    23.8580    23.9840 hc         1 UXK       0.032700
     54 H15        -40.8950    23.5350    22.3070 hc         1 UXK       0.032700
     55 H16        -40.3930    25.0410    23.0780 hc         1 UXK       0.032700
     56 H17        -42.0170    26.7230    23.7190 hc         1 UXK       0.045450
     57 H18        -43.1740    25.6480    24.4880 hc         1 UXK       0.045450
     58 H19        -44.1980    27.7690    23.7500 h1         1 UXK       0.031950
     59 H20        -44.9610    26.3950    22.9660 h1         1 UXK       0.031950
     60 H21        -44.4780    28.7790    20.2670 h1         1 UXK       0.049200
     61 H22        -45.7130    28.0360    21.2760 h1         1 UXK       0.049200
     62 H23        -42.6430    30.0490    22.2020 ha         1 UXK       0.137000
     63 H24        -47.0730    31.5880    23.4860 h4         1 UXK       0.016100
     64 H25        -42.5790    36.8090    28.2540 h1         1 UXK       0.059200
     65 H26        -44.1420    37.1910    27.5550 h1         1 UXK       0.059200
     66 H27        -43.9030    35.6720    23.6810 hc         1 UXK       0.058950
     67 H28        -42.4180    35.2710    24.5090 hc         1 UXK       0.058950
     68 H29        -41.0750    39.7400    21.4260 ha         1 UXK       0.114500
     69 H30        -43.2380    40.5830    20.6030 ha         1 UXK       0.114000
     70 H31        -44.3260    42.5090    21.7190 ha         1 UXK       0.113000
     71 H32        -43.2230    43.5810    23.6590 ha         1 UXK       0.114000
     72 H33        -41.0610    42.7380    24.4780 ha         1 UXK       0.114500
     73 H34        -41.2660    38.9550    24.4110 ha         1 UXK       0.131000
     74 H35        -46.0550    35.8310    23.9820 h1         1 UXK       0.052200
     75 H36        -47.3190    35.6350    25.1940 h1         1 UXK       0.052200
     76 H37        -47.0390    33.7060    23.6360 h1         1 UXK       0.048200
     77 H38        -46.9500    33.2470    25.3410 h1         1 UXK       0.048200
     78 H39        -43.1560    27.0450    19.8050 h1         1 UXK       0.031950
     79 H40        -44.3170    25.9430    20.5260 h1         1 UXK       0.031950
     80 H41        -42.1030    24.8860    20.4060 hc         1 UXK       0.045450
     81 H42        -41.3570    26.2550    21.2160 hc         1 UXK       0.045450
     82 H44        -38.6420    41.3670    25.2360 hn         1 UXK       0.507000
     83 C01        -43.5950    23.9250    22.4460 c3         1 UXK      -0.083100
@<TRIPOS>BOND
     1     1     2 ar  
     2     1    16 ar  
     3     1    40 1   
     4     2    17 ar  
     5     2    34 1   
     6     3    18 1   
     7     3    34 1   
     8     3    41 1   
     9     3    42 1   
    10     4    18 1   
    11     4    19 1   
    12     4    43 1   
    13     4    44 1   
    14     5    20 1   
    15     5    35 1   
    16     5    45 1   
    17     5    46 1   
    18     6    27 ar  
    19     6    35 1   
    20     6    36 ar  
    21     7    36 ar  
    22     7    37 ar  
    23     7    47 1   
    24     8    27 ar  
    25     8    37 ar  
    26     8    38 1   
    27     9    21 1   
    28     9    38 1   
    29     9    48 1   
    30     9    49 1   
    31    10    11 1   
    32    10    12 1   
    33    10    31 1   
    34    10    83 1   
    35    11    53 1   
    36    11    54 1   
    37    11    55 1   
    38    12    13 1   
    39    12    56 1   
    40    12    57 1   
    41    13    32 1   
    42    13    58 1   
    43    13    59 1   
    44    14    15 1   
    45    14    32 1   
    46    14    60 1   
    47    14    61 1   
    48    15    16 ar  
    49    15    33 ar  
    50    16    62 1   
    51    17    33 ar  
    52    17    63 1   
    53    18    20 1   
    54    18    39 1   
    55    19    35 1   
    56    19    64 1   
    57    19    65 1   
    58    20    66 1   
    59    20    67 1   
    60    21    22 ar  
    61    21    26 ar  
    62    22    23 ar  
    63    22    68 1   
    64    23    24 ar  
    65    23    69 1   
    66    24    25 ar  
    67    24    70 1   
    68    25    26 ar  
    69    25    71 1   
    70    26    72 1   
    71    27    73 1   
    72    28    29 1   
    73    28    39 1   
    74    28    74 1   
    75    28    75 1   
    76    29    34 1   
    77    29    76 1   
    78    29    77 1   
    79    30    31 1   
    80    30    32 1   
    81    30    78 1   
    82    30    79 1   
    83    31    80 1   
    84    31    81 1   
    85    38    82 1   
    86    50    83 1   
    87    51    83 1   
    88    52    83 1   
@<TRIPOS>SUBSTRUCTURE
     1 UXK         1 TEMP              0 ****  ****    0 ROOT
