@<TRIPOS>MOLECULE
UXK
   83    88     1     0     0
SMALL
No Charge or Current Charge


@<TRIPOS>ATOM
      1 C10        -43.9070    31.7350    23.0400 ca         1 UXK      -0.127000
      2 C13        -45.1260    32.0370    23.6770 ca         1 UXK       0.246000
      3 C15        -44.2230    33.4890    25.5580 c6         1 UXK       0.175800
      4 C17        -43.2760    35.1820    27.2080 c6         1 UXK      -0.095900
      5 C20        -43.2770    37.3110    25.1810 c6         1 UXK       0.227300
      6 C22        -41.7190    38.5970    26.6680 ca         1 UXK       0.419900
      7 C24        -41.0900    40.3140    28.0510 ca         1 UXK       0.193900
      8 C26        -40.1550    40.2640    25.9730 ca         1 UXK       0.403900
      9 C28        -39.2440    40.6310    23.6140 c3         1 UXK       0.283100
     10 C02        -42.4100    24.9580    22.3030 c6         1 UXK      -0.047000
     11 C03        -41.0640    24.2320    22.6000 c3         1 UXK      -0.083100
     12 C04        -42.6100    26.1340    23.3060 c6         1 UXK      -0.067400
     13 C05        -43.8360    27.0150    22.9520 c6         1 UXK       0.169800
     14 C07        -44.8660    28.4770    21.2260 c3         1 UXK       0.119500
     15 C08        -44.9450    29.7450    22.0930 ca         1 UXK       0.312300
     16 C09        -43.8190    30.5790    22.2430 ca         1 UXK      -0.109000
     17 C12        -46.2100    31.1380    23.4580 ca         1 UXK       0.278900
     18 C16        -44.1390    35.0130    25.9300 c6         1 UXK       0.179000
     19 C18        -43.0770    36.6710    27.5800 c6         1 UXK       0.227300
     20 C19        -43.4540    35.8280    24.7910 c6         1 UXK      -0.095900
     21 C29        -40.5730    40.9940    22.9520 ca         1 UXK      -0.111300
     22 C30        -41.3360    40.0070    22.2940 ca         1 UXK      -0.099000
     23 C31        -42.5610    40.3410    21.6900 ca         1 UXK      -0.110000
     24 C32        -43.0310    41.6640    21.7350 ca         1 UXK      -0.107000
     25 C33        -42.2740    42.6540    22.3840 ca         1 UXK      -0.110000
     26 C34        -41.0500    42.3210    22.9890 ca         1 UXK      -0.099000
     27 C35        -40.8620    39.0970    25.6820 ca         1 UXK      -0.367000
     28 C37        -46.4490    35.3210    25.1640 c6         1 UXK       0.154600
     29 C38        -46.5710    33.8200    24.7710 c6         1 UXK       0.158800
     30 C39        -43.6180    26.4440    20.5670 c6         1 UXK       0.169800
     31 C40        -42.3860    25.5490    20.8620 c6         1 UXK      -0.067400
     32 N06        -43.7490    27.5450    21.5610 n3         1 UXK      -0.724600
     33 N11        -46.1330    30.0200    22.6900 nb         1 UXK      -0.654000
     34 N14        -45.2360    33.2060    24.4870 nh         1 UXK      -0.787400
     35 N21        -42.4870    37.4350    26.4400 nh         1 UXK      -0.782300
     36 N23        -41.8300    39.2040    27.8650 nb         1 UXK      -0.302000
     37 N25        -40.2550    40.8790    27.1570 nb         1 UXK      -0.297000
     38 N27        -39.2930    40.8550    25.0690 nu         1 UXK      -0.942100
     39 O36        -45.4750    35.5110    26.2230 os         1 UXK      -0.451000
     40 H1         -43.0460    32.3880    23.1480 ha         1 UXK       0.119000
     41 H2         -44.4890    32.9190    26.4610 h1         1 UXK       0.050700
     42 H3         -43.2240    33.1460    25.2550 h1         1 UXK       0.050700
     43 H4         -43.7440    34.6570    28.0510 hc         1 UXK       0.058950
     44 H5         -42.2930    34.7150    27.0600 hc         1 UXK       0.058950
     45 H6         -42.7870    37.8320    24.3470 h1         1 UXK       0.059200
     46 H7         -44.2660    37.7750    25.3100 h1         1 UXK       0.059200
     47 H8         -41.1780    40.8060    29.0180 h5         1 UXK       0.038100
     48 H9         -38.9990    39.5810    23.4030 h1         1 UXK       0.052700
     49 H10        -38.4480    41.2440    23.1680 h1         1 UXK       0.052700
     50 H11        -43.5540    23.4650    23.4680 hc         1 UXK       0.032700
     51 H12        -44.5370    24.3010    22.2660 hc         1 UXK       0.032700
     52 H13        -43.3980    23.0560    21.7550 hc         1 UXK       0.032700
     53 H14        -41.0470    23.8150    23.6150 hc         1 UXK       0.032700
     54 H15        -40.8900    23.4050    21.9000 hc         1 UXK       0.032700
     55 H16        -40.2120    24.9170    22.5140 hc         1 UXK       0.032700
     56 H17        -41.7140    26.7700    23.3140 hc         1 UXK       0.045450
     57 H18        -42.7190    25.7480    24.3280 hc         1 UXK       0.045450
     58 H19        -43.8810    27.8430    23.6740 h1         1 UXK       0.031950
     59 H20        -44.7590    26.4320    23.0820 h1         1 UXK       0.031950
     60 H21        -44.7640    28.8080    20.1840 h1         1 UXK       0.049200
     61 H22        -45.8240    27.9430    21.2910 h1         1 UXK       0.049200
     62 H23        -42.8880    30.3230    21.7430 ha         1 UXK       0.137000
     63 H24        -47.1790    31.3150    23.9230 h4         1 UXK       0.016100
     64 H25        -42.4180    36.7150    28.4600 h1         1 UXK       0.059200
     65 H26        -44.0430    37.1100    27.8720 h1         1 UXK       0.059200
     66 H27        -44.0150    35.7520    23.8520 hc         1 UXK       0.058950
     67 H28        -42.4660    35.3990    24.5770 hc         1 UXK       0.058950
     68 H29        -40.9820    38.9800    22.2510 ha         1 UXK       0.114500
     69 H30        -43.1450    39.5730    21.1870 ha         1 UXK       0.114000
     70 H31        -43.9790    41.9210    21.2680 ha         1 UXK       0.113000
     71 H32        -42.6370    43.6790    22.4190 ha         1 UXK       0.114000
     72 H33        -40.4720    43.0940    23.4910 ha         1 UXK       0.114500
     73 H34        -40.7470    38.5900    24.7340 ha         1 UXK       0.131000
     74 H35        -46.1670    35.9190    24.2870 h1         1 UXK       0.052200
     75 H36        -47.4250    35.6900    25.5110 h1         1 UXK       0.052200
     76 H37        -47.2220    33.7490    23.8870 h1         1 UXK       0.048200
     77 H38        -47.0670    33.2780    25.5900 h1         1 UXK       0.048200
     78 H39        -43.5080    26.8620    19.5550 h1         1 UXK       0.031950
     79 H40        -44.5280    25.8270    20.5570 h1         1 UXK       0.031950
     80 H41        -42.3340    24.7420    20.1190 hc         1 UXK       0.045450
     81 H42        -41.4770    26.1510    20.7240 hc         1 UXK       0.045450
     82 H44        -38.8410    41.7010    25.4150 hn         1 UXK       0.507000
     83 C01        -43.5400    23.8880    22.4560 c3         1 UXK      -0.083100
@<TRIPOS>BOND
     1     1     2 ar  
     2     1    16 ar  
     3     1    40 1   
     4     2    17 ar  
     5     2    34 1   
     6     3    18 1   
     7     3    34 1   
     8     3    41 1   
     9     3    42 1   
    10     4    18 1   
    11     4    19 1   
    12     4    43 1   
    13     4    44 1   
    14     5    20 1   
    15     5    35 1   
    16     5    45 1   
    17     5    46 1   
    18     6    27 ar  
    19     6    35 1   
    20     6    36 ar  
    21     7    36 ar  
    22     7    37 ar  
    23     7    47 1   
    24     8    27 ar  
    25     8    37 ar  
    26     8    38 1   
    27     9    21 1   
    28     9    38 1   
    29     9    48 1   
    30     9    49 1   
    31    10    11 1   
    32    10    12 1   
    33    10    31 1   
    34    10    83 1   
    35    11    53 1   
    36    11    54 1   
    37    11    55 1   
    38    12    13 1   
    39    12    56 1   
    40    12    57 1   
    41    13    32 1   
    42    13    58 1   
    43    13    59 1   
    44    14    15 1   
    45    14    32 1   
    46    14    60 1   
    47    14    61 1   
    48    15    16 ar  
    49    15    33 ar  
    50    16    62 1   
    51    17    33 ar  
    52    17    63 1   
    53    18    20 1   
    54    18    39 1   
    55    19    35 1   
    56    19    64 1   
    57    19    65 1   
    58    20    66 1   
    59    20    67 1   
    60    21    22 ar  
    61    21    26 ar  
    62    22    23 ar  
    63    22    68 1   
    64    23    24 ar  
    65    23    69 1   
    66    24    25 ar  
    67    24    70 1   
    68    25    26 ar  
    69    25    71 1   
    70    26    72 1   
    71    27    73 1   
    72    28    29 1   
    73    28    39 1   
    74    28    74 1   
    75    28    75 1   
    76    29    34 1   
    77    29    76 1   
    78    29    77 1   
    79    30    31 1   
    80    30    32 1   
    81    30    78 1   
    82    30    79 1   
    83    31    80 1   
    84    31    81 1   
    85    38    82 1   
    86    50    83 1   
    87    51    83 1   
    88    52    83 1   
@<TRIPOS>SUBSTRUCTURE
     1 UXK         1 TEMP              0 ****  ****    0 ROOT
