@<TRIPOS>MOLECULE
UXL
   54    58     1     0     0
SMALL
No Charge or Current Charge


@<TRIPOS>ATOM
      1 C4          -3.6270   -10.1990   -17.4510 cc         1 UXL       0.436900
      2 C5          -3.3170    -8.9400   -17.0630 cd         1 UXL      -0.350600
      3 C6          -2.0000    -8.3610   -17.3410 c          1 UXL       0.635600
      4 C8          -5.3890    -9.4910   -16.4830 cd         1 UXL       0.466800
      5 N1          -1.1870    -9.2180   -18.0110 ns         1 UXL      -0.472500
      6 N3          -2.7260   -10.9960   -18.1250 n          1 UXL      -0.366300
      7 C2          -1.4490   -10.4890   -18.4250 c          1 UXL       0.621000
      8 CAD         -7.5930    -8.4480   -18.1950 cc         1 UXL      -0.203000
      9 CAE        -10.5030    -5.4290   -18.5700 c6         1 UXL      -0.081400
     10 CAF        -10.2550    -6.2730   -19.8490 c6         1 UXL      -0.093400
     11 CAG         -5.4170    -4.3740   -17.9830 cy         1 UXL      -0.089400
     12 CAH         -3.0820   -12.3690   -18.5550 c3         1 UXL       0.119000
     13 CAI        -10.4560    -6.3210   -17.2990 c6         1 UXL      -0.102700
     14 CAJ         -4.8360    -5.8150   -18.1650 cy         1 UXL      -0.083400
     15 CAK         -5.0630    -4.5560   -16.4690 cy         1 UXL      -0.083400
     16 CAL         -8.8580    -6.9470   -19.8200 c6         1 UXL       0.075600
     17 CAM         -6.7960    -9.4550   -15.9610 c3         1 UXL      -0.123000
     18 CAR         -7.6930    -8.6360   -16.8400 cd         1 UXL       0.227300
     19 CAS         -9.2750    -7.2610   -17.3400 cc         1 UXL       0.409800
     20 CAY         -5.3540    -6.0770   -16.7080 cy         1 UXL      -0.112700
     21 N7          -4.4550    -8.4550   -16.4290 na         1 UXL      -0.110500
     22 N9          -4.8920   -10.5520   -17.1040 nc         1 UXL      -0.715000
     23 NAO         -8.7440    -7.9130   -16.3170 nd         1 UXL      -0.681000
     24 NAZ         -8.5960    -7.5600   -18.5030 na         1 UXL      -0.170500
     25 O2          -0.5970   -11.1290   -19.0180 o          1 UXL      -0.563000
     26 O6          -1.6400    -7.2420   -17.0210 o          1 UXL      -0.547000
     27 H1          -0.2680    -8.8680   -18.2280 hn         1 UXL       0.343500
     28 H2          -3.1640   -14.4100   -17.7990 hc         1 UXL       0.047700
     29 H3          -1.8350   -13.4420   -17.1230 hc         1 UXL       0.047700
     30 H4          -3.5050   -13.1730   -16.5700 hc         1 UXL       0.047700
     31 H5          -6.8910    -8.8380   -18.9210 h4         1 UXL       0.165000
     32 H6          -9.7390    -4.6420   -18.4970 hc         1 UXL       0.052200
     33 H7         -11.4740    -4.9190   -18.6340 hc         1 UXL       0.052200
     34 H8         -10.3420    -5.6410   -20.7430 hc         1 UXL       0.057700
     35 H9         -11.0330    -7.0440   -19.9350 hc         1 UXL       0.057700
     36 H11         -6.4900    -4.2840   -18.1950 hc         1 UXL       0.048700
     37 H12         -4.1330   -12.3830   -18.8730 h1         1 UXL       0.069700
     38 H13         -2.4870   -12.6580   -19.4310 h1         1 UXL       0.069700
     39 H14        -10.4180    -5.6900   -16.4020 hc         1 UXL       0.068700
     40 H15        -11.3830    -6.9050   -17.2270 hc         1 UXL       0.068700
     41 H16         -5.2960    -6.4220   -18.9520 hc         1 UXL       0.055450
     42 H17         -3.7470    -5.8550   -18.2830 hc         1 UXL       0.055450
     43 H18         -4.0220    -4.3190   -16.2130 hc         1 UXL       0.055450
     44 H19         -5.7220    -4.0470   -15.7580 hc         1 UXL       0.055450
     45 H20         -8.7890    -7.7120   -20.6070 h1         1 UXL       0.058700
     46 H21         -8.0810    -6.1930   -20.0110 h1         1 UXL       0.058700
     47 H22         -6.7980    -9.0570   -14.9410 hc         1 UXL       0.082200
     48 H23         -7.1920   -10.4740   -15.8890 hc         1 UXL       0.082200
     49 H26         -6.4250    -6.2990   -16.6710 hc         1 UXL       0.074700
     50 CAN         -4.6340    -7.1170   -15.8290 c3         1 UXL       0.087600
     51 CAA         -2.8840   -13.4130   -17.4410 c3         1 UXL      -0.112100
     52 H10         -4.8860    -3.5730   -18.5080 hc         1 UXL       0.048700
     53 H24         -5.1910    -7.2170   -14.8890 h1         1 UXL       0.077200
     54 H25         -3.6460    -6.7180   -15.5700 h1         1 UXL       0.077200
@<TRIPOS>BOND
     1     1     2 2   
     2     1     6 1   
     3     1    22 1   
     4     2     3 1   
     5     2    21 1   
     6     3     5 1   
     7     3    26 2   
     8     4    17 1   
     9     4    21 1   
    10     4    22 2   
    11     5     7 1   
    12     5    27 1   
    13     6     7 1   
    14     6    12 1   
    15     7    25 2   
    16     8    18 2   
    17     8    24 1   
    18     8    31 1   
    19     9    10 1   
    20     9    13 1   
    21     9    32 1   
    22     9    33 1   
    23    10    16 1   
    24    10    34 1   
    25    10    35 1   
    26    11    14 1   
    27    11    15 1   
    28    11    36 1   
    29    11    52 1   
    30    12    37 1   
    31    12    38 1   
    32    12    51 1   
    33    13    19 1   
    34    13    39 1   
    35    13    40 1   
    36    14    20 1   
    37    14    41 1   
    38    14    42 1   
    39    15    20 1   
    40    15    43 1   
    41    15    44 1   
    42    16    24 1   
    43    16    45 1   
    44    16    46 1   
    45    17    18 1   
    46    17    47 1   
    47    17    48 1   
    48    18    23 1   
    49    19    23 2   
    50    19    24 1   
    51    20    49 1   
    52    20    50 1   
    53    21    50 1   
    54    28    51 1   
    55    29    51 1   
    56    30    51 1   
    57    50    53 1   
    58    50    54 1   
@<TRIPOS>SUBSTRUCTURE
     1 UXL         1 TEMP              0 ****  ****    0 ROOT
