@<TRIPOS>MOLECULE
UXL
   54    58     1     0     0
SMALL
abcg2


@<TRIPOS>ATOM
      1 C4          -3.6800   -10.1610   -17.4770 cc         1 UXL       0.436900
      2 C5          -3.3500    -8.8870   -17.0530 cd         1 UXL      -0.350600
      3 C6          -2.0760    -8.3100   -17.3210 c          1 UXL       0.635600
      4 C8          -5.3780    -9.4370   -16.4020 cd         1 UXL       0.466800
      5 N1          -1.2860    -9.1890   -18.0730 ns         1 UXL      -0.472500
      6 N3          -2.8240   -10.9490   -18.2090 n          1 UXL      -0.366300
      7 C2          -1.5720   -10.4690   -18.5220 c          1 UXL       0.621000
      8 CAD         -7.6230    -8.5070   -18.1370 cc         1 UXL      -0.203000
      9 CAE        -10.3870    -5.4530   -18.6990 c6         1 UXL      -0.081400
     10 CAF        -10.2310    -6.4080   -19.8830 c6         1 UXL      -0.093400
     11 CAG         -5.2520    -4.3870   -17.8990 cy         1 UXL      -0.089400
     12 CAH         -3.2070   -12.3100   -18.6070 c3         1 UXL       0.119000
     13 CAI        -10.3590    -6.2330   -17.3800 c6         1 UXL      -0.102700
     14 CAJ         -4.8530    -5.8720   -18.0900 cy         1 UXL      -0.083400
     15 CAK         -5.2470    -4.6260   -16.3680 cy         1 UXL      -0.083400
     16 CAL         -8.8790    -7.1090   -19.8410 c6         1 UXL       0.075600
     17 CAM         -6.7570    -9.3400   -15.8470 c3         1 UXL      -0.123000
     18 CAR         -7.6720    -8.5870   -16.7710 cd         1 UXL       0.227300
     19 CAS         -9.2210    -7.1980   -17.3540 cc         1 UXL       0.409800
     20 CAY         -5.3690    -6.1420   -16.6570 cy         1 UXL      -0.112700
     21 N7          -4.4630    -8.4390   -16.3520 na         1 UXL      -0.110500
     22 N9          -4.9250   -10.5030   -17.0750 nc         1 UXL      -0.715000
     23 NAO         -8.6750    -7.7710   -16.2910 nd         1 UXL      -0.681000
     24 NAZ         -8.6150    -7.6200   -18.4960 na         1 UXL      -0.170500
     25 O2          -0.7490   -11.1170   -19.1580 o          1 UXL      -0.563000
     26 O6          -1.6400    -7.2110   -16.9860 o          1 UXL      -0.547000
     27 H1          -0.3610    -8.8560   -18.3120 hn         1 UXL       0.343500
     28 H2          -3.1420   -14.3360   -17.8880 hc         1 UXL       0.047700
     29 H3          -1.7610   -13.3530   -17.3790 hc         1 UXL       0.047700
     30 H4          -3.3410   -13.1310   -16.6080 hc         1 UXL       0.047700
     31 H5          -6.9720    -8.9570   -18.8660 h4         1 UXL       0.165000
     32 H6          -9.5720    -4.7230   -18.7120 hc         1 UXL       0.052200
     33 H7         -11.3220    -4.8970   -18.7780 hc         1 UXL       0.052200
     34 H8         -10.3130    -5.8720   -20.8290 hc         1 UXL       0.057700
     35 H9         -11.0320    -7.1530   -19.8580 hc         1 UXL       0.057700
     36 H11         -6.2590    -4.1920   -18.2700 hc         1 UXL       0.048700
     37 H12         -4.2800   -12.2960   -18.7810 h1         1 UXL       0.069700
     38 H13         -2.7060   -12.5170   -19.5490 h1         1 UXL       0.069700
     39 H14        -10.2800    -5.5640   -16.5210 hc         1 UXL       0.068700
     40 H15        -11.2980    -6.7860   -17.2650 hc         1 UXL       0.068700
     41 H16         -5.3220    -6.4300   -18.9000 hc         1 UXL       0.055450
     42 H17         -3.7700    -5.9900   -18.1530 hc         1 UXL       0.055450
     43 H18         -4.2760    -4.3830   -15.9300 hc         1 UXL       0.055450
     44 H19         -6.0320    -4.1610   -15.7720 hc         1 UXL       0.055450
     45 H20         -8.8430    -7.9450   -20.5400 h1         1 UXL       0.058700
     46 H21         -8.0810    -6.4110   -20.1060 h1         1 UXL       0.058700
     47 H22         -6.7430    -8.8270   -14.8830 hc         1 UXL       0.082200
     48 H23         -7.1140   -10.3560   -15.6680 hc         1 UXL       0.082200
     49 H26         -6.4200    -6.4210   -16.6950 hc         1 UXL       0.074700
     50 CAN         -4.6110    -7.1040   -15.7580 c3         1 UXL       0.087600
     51 CAA         -2.8380   -13.3430   -17.5520 c3         1 UXL      -0.112100
     52 H10         -4.5760    -3.6280   -18.2930 hc         1 UXL       0.048700
     53 H24         -5.1140    -7.2160   -14.7970 h1         1 UXL       0.077200
     54 H25         -3.6040    -6.7370   -15.5750 h1         1 UXL       0.077200
@<TRIPOS>BOND
     1     1     2 2   
     2     1     6 1   
     3     1    22 1   
     4     2     3 1   
     5     2    21 1   
     6     3     5 1   
     7     3    26 2   
     8     4    17 1   
     9     4    21 1   
    10     4    22 2   
    11     5     7 1   
    12     5    27 1   
    13     6     7 1   
    14     6    12 1   
    15     7    25 2   
    16     8    18 2   
    17     8    24 1   
    18     8    31 1   
    19     9    10 1   
    20     9    13 1   
    21     9    32 1   
    22     9    33 1   
    23    10    16 1   
    24    10    34 1   
    25    10    35 1   
    26    11    14 1   
    27    11    15 1   
    28    11    36 1   
    29    11    52 1   
    30    12    37 1   
    31    12    38 1   
    32    12    51 1   
    33    13    19 1   
    34    13    39 1   
    35    13    40 1   
    36    14    20 1   
    37    14    41 1   
    38    14    42 1   
    39    15    20 1   
    40    15    43 1   
    41    15    44 1   
    42    16    24 1   
    43    16    45 1   
    44    16    46 1   
    45    17    18 1   
    46    17    47 1   
    47    17    48 1   
    48    18    23 1   
    49    19    23 2   
    50    19    24 1   
    51    20    49 1   
    52    20    50 1   
    53    21    50 1   
    54    28    51 1   
    55    29    51 1   
    56    30    51 1   
    57    50    53 1   
    58    50    54 1   
@<TRIPOS>SUBSTRUCTURE
     1 UXL         1 TEMP              0 ****  ****    0 ROOT
