@<TRIPOS>MOLECULE
UXM
   54    56     1     0     0
SMALL
bcc


@<TRIPOS>ATOM
      1 C10        -43.5640   -12.9150    27.0170 c          1 UXM       0.693100
      2 C13        -41.2480   -12.0150    26.8150 ca         1 UXM      -0.079300
      3 C01        -45.1200    -6.7890    31.6390 c3         1 UXM      -0.086100
      4 C03        -45.6760    -8.7580    30.2040 ca         1 UXM       0.099700
      5 C04        -44.8240    -8.8520    29.1050 ca         1 UXM      -0.221300
      6 C05        -44.4540    -7.7090    28.3550 cg         1 UXM       0.250800
      7 C07        -44.2720   -10.1140    28.8010 ca         1 UXM       0.627600
      8 C09        -42.5460   -11.9230    27.5810 c3         1 UXM      -0.024300
      9 C14        -40.0630   -12.2800    27.4930 ca         1 UXM      -0.104500
     10 C15        -38.8630   -12.3670    26.8020 ca         1 UXM      -0.126000
     11 C16        -38.8370   -12.1840    25.4260 ca         1 UXM      -0.114000
     12 C17        -40.0170   -11.9150    24.7440 ca         1 UXM      -0.126000
     13 C18        -41.2170   -11.8300    25.4340 ca         1 UXM      -0.104500
     14 C20        -45.5430   -11.1910    30.3840 ca         1 UXM       0.777200
     15 C22        -47.2090   -12.5400    31.6010 c6         1 UXM       0.220800
     16 C23        -47.8530   -13.8870    31.2780 c6         1 UXM      -0.095400
     17 C24        -47.7220   -14.1890    29.7930 c6         1 UXM       0.163500
     18 C26        -46.2370   -14.3760    29.4530 c6         1 UXM      -0.095400
     19 C27        -45.3440   -13.6230    30.4380 c6         1 UXM       0.220800
     20 C28        -46.0020    -9.9310    30.8860 ca         1 UXM      -0.251300
     21 C29        -46.6580    -9.7990    32.1360 cg         1 UXM       0.253800
     22 N06        -44.1490    -6.7880    27.7300 n1         1 UXM      -0.363800
     23 N11        -44.5140   -12.4380    26.2110 nt         1 UXM      -0.668000
     24 N19        -44.6300   -11.2140    29.4000 nb         1 UXM      -0.796000
     25 N21        -45.9660   -12.3690    30.8480 nh         1 UXM      -0.760300
     26 N25        -48.4720   -15.3860    29.4470 n8         1 UXM      -0.884800
     27 N30        -47.1470    -9.6340    33.1690 n1         1 UXM      -0.382800
     28 O12        -43.4230   -14.0950    27.2890 o          1 UXM      -0.601100
     29 S08        -43.0290   -10.1690    27.5640 ss         1 UXM      -0.274400
     30 H1         -45.4820    -5.8200    31.9800 hc         1 UXM       0.044033
     31 H2         -44.9550    -7.4130    32.5170 hc         1 UXM       0.044033
     32 H3         -44.1600    -6.6350    31.1480 hc         1 UXM       0.044033
     33 H4         -46.3020    -6.7570    29.8360 hc         1 UXM       0.063700
     34 H5         -47.1050    -7.5110    31.1880 hc         1 UXM       0.063700
     35 H6         -42.3750   -12.2050    28.6200 h1         1 UXM       0.115700
     36 H7         -40.0800   -12.4210    28.5670 ha         1 UXM       0.134500
     37 H8         -37.9480   -12.5780    27.3400 ha         1 UXM       0.134500
     38 H9         -37.9020   -12.2520    24.8860 ha         1 UXM       0.134000
     39 H10        -40.0040   -11.7730    23.6710 ha         1 UXM       0.134500
     40 H11        -42.1310   -11.6250    24.8890 ha         1 UXM       0.134500
     41 H12        -47.9040   -11.7520    31.3060 h1         1 UXM       0.065450
     42 H13        -47.0350   -12.4500    32.6750 h1         1 UXM       0.065450
     43 H14        -48.9030   -13.8300    31.5760 hc         1 UXM       0.063450
     44 H15        -47.4060   -14.6950    31.8630 hc         1 UXM       0.063450
     45 H16        -48.0840   -13.3020    29.2490 h1         1 UXM       0.016700
     46 H17        -45.9850   -15.4380    29.5090 hc         1 UXM       0.063450
     47 H18        -46.0380   -14.0490    28.4320 hc         1 UXM       0.063450
     48 H19        -45.1950   -14.2140    31.3440 h1         1 UXM       0.065450
     49 H20        -44.3640   -13.4320    30.0180 h1         1 UXM       0.065450
     50 H21        -45.1810   -13.0670    25.7940 hn         1 UXM       0.321500
     51 H22        -44.6080   -11.4570    26.0060 hn         1 UXM       0.321500
     52 H23        -49.4630   -15.2010    29.5470 hn         1 UXM       0.341300
     53 H24        -48.3350   -15.5960    28.4650 hn         1 UXM       0.341300
     54 C02        -46.1410    -7.4180    30.6890 c3         1 UXM      -0.053100
@<TRIPOS>BOND
     1     1     8 1   
     2     1    23 1   
     3     1    28 2   
     4     2     8 1   
     5     2     9 ar  
     6     2    13 ar  
     7     3    30 1   
     8     3    31 1   
     9     3    32 1   
    10     3    54 1   
    11     4     5 ar  
    12     4    20 ar  
    13     4    54 1   
    14     5     6 1   
    15     5     7 ar  
    16     6    22 3   
    17     7    24 ar  
    18     7    29 1   
    19     8    29 1   
    20     8    35 1   
    21     9    10 ar  
    22     9    36 1   
    23    10    11 ar  
    24    10    37 1   
    25    11    12 ar  
    26    11    38 1   
    27    12    13 ar  
    28    12    39 1   
    29    13    40 1   
    30    14    20 ar  
    31    14    24 ar  
    32    14    25 1   
    33    15    16 1   
    34    15    25 1   
    35    15    41 1   
    36    15    42 1   
    37    16    17 1   
    38    16    43 1   
    39    16    44 1   
    40    17    18 1   
    41    17    26 1   
    42    17    45 1   
    43    18    19 1   
    44    18    46 1   
    45    18    47 1   
    46    19    25 1   
    47    19    48 1   
    48    19    49 1   
    49    20    21 1   
    50    21    27 3   
    51    23    50 1   
    52    23    51 1   
    53    26    52 1   
    54    26    53 1   
    55    33    54 1   
    56    34    54 1   
@<TRIPOS>SUBSTRUCTURE
     1 UXM         1 TEMP              0 ****  ****    0 ROOT
