@<TRIPOS>MOLECULE
UXM
   54    56     1     0     0
SMALL
No Charge or Current Charge


@<TRIPOS>ATOM
      1 C10        -43.3750   -13.1950    27.3790 c          1 UXM       0.626100
      2 C13        -41.3280   -11.8580    26.7000 ca         1 UXM      -0.079300
      3 C01        -44.5190    -6.8490    31.9510 c3         1 UXM      -0.086100
      4 C03        -45.4770    -8.6050    30.3480 ca         1 UXM       0.099700
      5 C04        -44.7470    -8.7780    29.1500 ca         1 UXM      -0.156000
      6 C05        -44.1400    -7.6690    28.4700 cg         1 UXM       0.340000
      7 C07        -44.5810   -10.0730    28.6330 ca         1 UXM       0.562300
      8 C09        -42.6090   -11.8610    27.5350 c3         1 UXM       0.023600
      9 C14        -40.0700   -11.8610    27.3370 ca         1 UXM      -0.086500
     10 C15        -38.8880   -11.8600    26.5760 ca         1 UXM      -0.108000
     11 C16        -38.9540   -11.8560    25.1730 ca         1 UXM      -0.096000
     12 C17        -40.2040   -11.8530    24.5310 ca         1 UXM      -0.108000
     13 C18        -41.3860   -11.8530    25.2910 ca         1 UXM      -0.086500
     14 C20        -45.8130   -11.0170    30.3330 ca         1 UXM       0.711900
     15 C22        -47.8010   -12.3900    31.0940 c6         1 UXM       0.220800
     16 C23        -48.3080   -13.8430    30.9180 c6         1 UXM      -0.095400
     17 C24        -47.6950   -14.4620    29.6490 c6         1 UXM       0.163500
     18 C26        -46.1490   -14.5230    29.7490 c6         1 UXM      -0.095400
     19 C27        -45.5520   -13.5030    30.7580 c6         1 UXM       0.220800
     20 C28        -46.0060    -9.7680    30.9580 ca         1 UXM      -0.186000
     21 C29        -46.6820    -9.6890    32.2200 cg         1 UXM       0.343000
     22 N06        -43.6540    -6.7570    27.9300 n1         1 UXM      -0.453000
     23 N11        -44.3770   -13.2250    26.4710 nt         1 UXM      -0.601000
     24 N19        -45.1070   -11.1650    29.2050 nb         1 UXM      -0.796000
     25 N21        -46.3350   -12.2350    30.8210 nh         1 UXM      -0.760300
     26 N25        -48.2610   -15.7970    29.3800 n8         1 UXM      -0.995200
     27 N30        -47.2300    -9.6050    33.2460 n1         1 UXM      -0.472000
     28 O12        -43.0890   -14.2040    28.0050 o          1 UXM      -0.601100
     29 S08        -43.6350   -10.3560    27.1360 ss         1 UXM      -0.322300
     30 H1         -44.6800    -5.8520    32.3790 hc         1 UXM       0.044033
     31 H2         -44.4660    -7.5720    32.7740 hc         1 UXM       0.044033
     32 H3         -43.5520    -6.8470    31.4320 hc         1 UXM       0.044033
     33 H4         -45.7270    -6.4310    30.2080 hc         1 UXM       0.063700
     34 H5         -46.6160    -7.1330    31.5110 hc         1 UXM       0.063700
     35 H6         -42.3380   -11.7970    28.5950 h1         1 UXM       0.115700
     36 H7         -40.0050   -11.8640    28.4230 ha         1 UXM       0.116500
     37 H8         -37.9210   -11.8630    27.0740 ha         1 UXM       0.116500
     38 H9         -38.0390   -11.8560    24.5840 ha         1 UXM       0.116000
     39 H10        -40.2560   -11.8490    23.4440 ha         1 UXM       0.116500
     40 H11        -42.3470   -11.8480    24.7810 ha         1 UXM       0.116500
     41 H12        -48.3670   -11.7460    30.4040 h1         1 UXM       0.065450
     42 H13        -48.0450   -12.0620    32.1150 h1         1 UXM       0.065450
     43 H14        -49.4050   -13.8430    30.8630 hc         1 UXM       0.063450
     44 H15        -48.0380   -14.4430    31.7990 hc         1 UXM       0.063450
     45 H16        -47.9650   -13.8230    28.7940 h1         1 UXM       0.016700
     46 H17        -45.8080   -15.5290    30.0290 hc         1 UXM       0.063450
     47 H18        -45.7340   -14.3270    28.7540 hc         1 UXM       0.063450
     48 H19        -45.5470   -13.9620    31.7580 h1         1 UXM       0.065450
     49 H20        -44.4950   -13.3190    30.5130 h1         1 UXM       0.065450
     50 H21        -44.8950   -14.0790    26.3320 hn         1 UXM       0.321500
     51 H22        -44.6250   -12.3820    25.9770 hn         1 UXM       0.321500
     52 H23        -49.2700   -15.7000    29.2160 hn         1 UXM       0.396500
     53 H24        -47.9060   -16.1290    28.4750 hn         1 UXM       0.396500
     54 C02        -45.6610    -7.2080    30.9780 c3         1 UXM      -0.053100
@<TRIPOS>BOND
     1     1     8 1   
     2     1    23 1   
     3     1    28 2   
     4     2     8 1   
     5     2     9 ar  
     6     2    13 ar  
     7     3    30 1   
     8     3    31 1   
     9     3    32 1   
    10     3    54 1   
    11     4     5 ar  
    12     4    20 ar  
    13     4    54 1   
    14     5     6 1   
    15     5     7 ar  
    16     6    22 3   
    17     7    24 ar  
    18     7    29 1   
    19     8    29 1   
    20     8    35 1   
    21     9    10 ar  
    22     9    36 1   
    23    10    11 ar  
    24    10    37 1   
    25    11    12 ar  
    26    11    38 1   
    27    12    13 ar  
    28    12    39 1   
    29    13    40 1   
    30    14    20 ar  
    31    14    24 ar  
    32    14    25 1   
    33    15    16 1   
    34    15    25 1   
    35    15    41 1   
    36    15    42 1   
    37    16    17 1   
    38    16    43 1   
    39    16    44 1   
    40    17    18 1   
    41    17    26 1   
    42    17    45 1   
    43    18    19 1   
    44    18    46 1   
    45    18    47 1   
    46    19    25 1   
    47    19    48 1   
    48    19    49 1   
    49    20    21 1   
    50    21    27 3   
    51    23    50 1   
    52    23    51 1   
    53    26    52 1   
    54    26    53 1   
    55    33    54 1   
    56    34    54 1   
@<TRIPOS>SUBSTRUCTURE
     1 UXM         1 TEMP              0 ****  ****    0 ROOT
