@<TRIPOS>MOLECULE
UXN
   36    37     1     0     0
SMALL
No Charge or Current Charge


@<TRIPOS>ATOM
      1 C01         18.9970    22.6130     4.3750 c          1 UXN       0.578500
      2 C02         18.5190    22.1270     3.0310 ca         1 UXN      -0.152600
      3 C03         19.2540    21.1420     2.3390 ca         1 UXN      -0.083000
      4 C04         18.8210    20.6800     1.0840 ca         1 UXN      -0.027500
      5 C05         17.6450    21.1980     0.5060 ca         1 UXN      -0.248500
      6 C09         17.9260    21.0350    -3.6100 c3         1 UXN       0.215100
      7 C10         18.6660    22.7410    -1.8900 c6         1 UXN       0.245500
      8 C11         17.5950    23.8240    -2.2140 c6         1 UXN      -0.125900
      9 C12         18.1590    25.2610    -2.0420 c6         1 UXN       0.156600
     10 C14         20.4610    24.5440    -2.2400 c6         1 UXN       0.156600
     11 C15         20.0050    23.1010    -2.5900 c6         1 UXN      -0.125900
     12 C16         16.9060    22.1830     1.1930 ca         1 UXN      -0.027500
     13 C17         17.3410    22.6430     2.4480 ca         1 UXN      -0.083000
     14 N08         18.2260    21.3430    -2.1900 n3         1 UXN      -0.797500
     15 O07         15.7870    21.1610    -1.4310 o          1 UXN      -0.539500
     16 O13         19.4700    25.2260    -1.4390 os         1 UXN      -0.450000
     17 O16         17.3980    19.1770    -1.1750 o          1 UXN      -0.539500
     18 S06         17.1120    20.6150    -1.1180 sy         1 UXN       1.185600
     19 H1          19.9350    22.1490     4.7520 h4         1 UXN      -0.005800
     20 H4          20.1660    20.7340     2.7700 ha         1 UXN       0.129000
     21 H5          19.4060    19.9260     0.5590 ha         1 UXN       0.138000
     22 H6          17.7880    19.9550    -3.7530 h1         1 UXN       0.048033
     23 H7          17.0070    21.5360    -3.9410 h1         1 UXN       0.048033
     24 H8          18.7410    21.3390    -4.2770 h1         1 UXN       0.048033
     25 H9          18.8910    22.8280    -0.8170 h1         1 UXN       0.069700
     26 H10         16.7250    23.7010    -1.5580 hc         1 UXN       0.058950
     27 H11         17.2270    23.7140    -3.2410 hc         1 UXN       0.058950
     28 H12         18.2270    25.7610    -3.0190 h1         1 UXN       0.046950
     29 H13         17.4870    25.8550    -1.4060 h1         1 UXN       0.046950
     30 H14         20.6420    25.1180    -3.1600 h1         1 UXN       0.046950
     31 H15         21.4030    24.5100    -1.6740 h1         1 UXN       0.046950
     32 H16         19.9060    23.0330    -3.6800 hc         1 UXN       0.058950
     33 H17         20.7840    22.3840    -2.3010 hc         1 UXN       0.058950
     34 H18         15.9960    22.5980     0.7610 ha         1 UXN       0.138000
     35 H19         16.7600    23.4040     2.9650 ha         1 UXN       0.129000
     36 O18         18.4110    23.4650     5.0350 o          1 UXN      -0.501100
@<TRIPOS>BOND
     1     1     2 1   
     2     1    19 1   
     3     1    36 2   
     4     2     3 ar  
     5     2    13 ar  
     6     3     4 ar  
     7     3    20 1   
     8     4     5 ar  
     9     4    21 1   
    10     5    12 ar  
    11     5    18 1   
    12     6    14 1   
    13     6    22 1   
    14     6    23 1   
    15     6    24 1   
    16     7     8 1   
    17     7    11 1   
    18     7    14 1   
    19     7    25 1   
    20     8     9 1   
    21     8    26 1   
    22     8    27 1   
    23     9    16 1   
    24     9    28 1   
    25     9    29 1   
    26    10    11 1   
    27    10    16 1   
    28    10    30 1   
    29    10    31 1   
    30    11    32 1   
    31    11    33 1   
    32    12    13 ar  
    33    12    34 1   
    34    13    35 1   
    35    14    18 1   
    36    15    18 2   
    37    17    18 2   
@<TRIPOS>SUBSTRUCTURE
     1 UXN         1 TEMP              0 ****  ****    0 ROOT
