@<TRIPOS>MOLECULE
UXN
   36    37     1     0     0
SMALL
bcc


@<TRIPOS>ATOM
      1 C01         19.6810    21.5920     4.4530 c          1 UXN       0.578500
      2 C02         18.9570    21.5410     3.1670 ca         1 UXN      -0.152600
      3 C03         19.4050    20.6680     2.1770 ca         1 UXN      -0.101000
      4 C04         18.7500    20.5960     0.9620 ca         1 UXN      -0.045500
      5 C05         17.6440    21.4080     0.7470 ca         1 UXN      -0.248500
      6 C09         18.3620    20.8810    -2.9620 c3         1 UXN       0.215100
      7 C10         18.1690    23.2030    -1.9970 c6         1 UXN       0.245500
      8 C11         17.3620    23.8850    -3.1100 c6         1 UXN      -0.125900
      9 C12         18.0660    25.1710    -3.5520 c6         1 UXN       0.133400
     10 C14         19.8620    25.0190    -2.0440 c6         1 UXN       0.133400
     11 C15         19.6510    23.5070    -2.1830 c6         1 UXN      -0.125900
     12 C16         17.1830    22.2820     1.7220 ca         1 UXN      -0.045500
     13 C17         17.8460    22.3460     2.9360 ca         1 UXN      -0.101000
     14 N08         17.9100    21.7660    -1.9010 n3         1 UXN      -0.797500
     15 O07         15.6870    22.2300    -0.7630 o          1 UXN      -0.610300
     16 O13         18.7400    25.7710    -2.4670 os         1 UXN      -0.403600
     17 O16         16.5090    19.8750    -1.0450 o          1 UXN      -0.610300
     18 S06         16.7910    21.2820    -0.8120 sy         1 UXN       1.327200
     19 H1          20.5450    20.9070     4.5210 h4         1 UXN      -0.005800
     20 H4          20.2700    20.0410     2.3600 ha         1 UXN       0.147000
     21 H5          19.1040    19.9180     0.1950 ha         1 UXN       0.156000
     22 H6          18.1730    19.8450    -2.7000 h1         1 UXN       0.048033
     23 H7          17.8630    21.0900    -3.9100 h1         1 UXN       0.048033
     24 H8          19.4350    20.9940    -3.1000 h1         1 UXN       0.048033
     25 H9          17.8810    23.6440    -1.0390 h1         1 UXN       0.069700
     26 H10         16.3520    24.0920    -2.7540 hc         1 UXN       0.058950
     27 H11         17.2660    23.2240    -3.9740 hc         1 UXN       0.058950
     28 H12         18.7630    24.9620    -4.3730 h1         1 UXN       0.046950
     29 H13         17.3440    25.8980    -3.9250 h1         1 UXN       0.046950
     30 H14         20.7590    25.3180    -2.6020 h1         1 UXN       0.046950
     31 H15         20.0250    25.2760    -0.9960 h1         1 UXN       0.046950
     32 H16         19.9910    23.1620    -3.1620 hc         1 UXN       0.058950
     33 H17         20.2500    22.9860    -1.4330 hc         1 UXN       0.058950
     34 H18         16.3200    22.9070     1.5430 ha         1 UXN       0.156000
     35 H19         17.4950    23.0240     3.7030 ha         1 UXN       0.147000
     36 O18         19.3790    22.3120     5.3720 o          1 UXN      -0.501100
@<TRIPOS>BOND
     1     1     2 1   
     2     1    19 1   
     3     1    36 2   
     4     2     3 ar  
     5     2    13 ar  
     6     3     4 ar  
     7     3    20 1   
     8     4     5 ar  
     9     4    21 1   
    10     5    12 ar  
    11     5    18 1   
    12     6    14 1   
    13     6    22 1   
    14     6    23 1   
    15     6    24 1   
    16     7     8 1   
    17     7    11 1   
    18     7    14 1   
    19     7    25 1   
    20     8     9 1   
    21     8    26 1   
    22     8    27 1   
    23     9    16 1   
    24     9    28 1   
    25     9    29 1   
    26    10    11 1   
    27    10    16 1   
    28    10    30 1   
    29    10    31 1   
    30    11    32 1   
    31    11    33 1   
    32    12    13 ar  
    33    12    34 1   
    34    13    35 1   
    35    14    18 1   
    36    15    18 2   
    37    17    18 2   
@<TRIPOS>SUBSTRUCTURE
     1 UXN         1 TEMP              0 ****  ****    0 ROOT
