@<TRIPOS>MOLECULE
UXP
   48    52     1     0     0
SMALL
No Charge or Current Charge


@<TRIPOS>ATOM
      1 C17        -38.0310    22.6140   -67.2270 cx         1 UXP      -0.111900
      2 C14        -36.2910    24.8320   -65.7910 cc         1 UXP      -0.221000
      3 C13        -35.1170    25.5180   -65.4730 cc         1 UXP       0.506900
      4 C22        -34.5100    29.5780   -63.9200 cc         1 UXP      -0.141100
      5 C18        -36.8330    21.8330   -67.7090 cx         1 UXP      -0.111900
      6 N10        -36.9910    27.7940   -66.0880 nb         1 UXP      -0.333000
      7 C02        -39.8890    30.9340   -67.8470 c3         1 UXP       0.147600
      8 C03        -40.1090    29.7240   -66.8740 c6         1 UXP       0.207500
      9 C04        -41.4970    29.0400   -67.1000 c6         1 UXP      -0.090400
     10 C05        -41.5530    27.6510   -66.4160 c6         1 UXP      -0.071400
     11 C06        -40.4470    26.7060   -66.9670 c6         1 UXP      -0.094400
     12 C07        -39.3080    27.4700   -67.6960 c6         1 UXP       0.234800
     13 C09        -37.7870    28.8790   -66.1960 ca         1 UXP       0.443900
     14 C11        -35.8850    27.9240   -65.3460 ca         1 UXP       0.488900
     15 C15        -35.9440    23.5260   -65.9580 cd         1 UXP      -0.093300
     16 C16        -36.8470    22.4030   -66.3100 cx         1 UXP      -0.085400
     17 C21        -35.5930    29.1500   -64.7430 ca         1 UXP      -0.328000
     18 C25        -36.4400    30.2220   -64.8880 ca         1 UXP       0.050000
     19 N08        -38.9730    28.7360   -66.9720 nh         1 UXP      -0.779300
     20 N19        -34.5600    23.5070   -65.7160 na         1 UXP       0.001800
     21 N20        -34.0490    24.7740   -65.4010 nd         1 UXP      -0.582800
     22 N23        -34.7810    30.9070   -63.6220 na         1 UXP       0.002500
     23 N24        -35.9760    31.3500   -64.2050 nc         1 UXP      -0.282400
     24 N26        -37.5580    30.0900   -65.6230 nb         1 UXP      -0.266000
     25 O01        -40.8930    31.9620   -67.7210 oh         1 UXP      -0.652000
     26 H1         -38.1890    23.6040   -67.6480 hc         1 UXP       0.078450
     27 H2         -38.9430    22.0630   -67.0090 hc         1 UXP       0.078450
     28 H3         -37.2810    25.2580   -65.8740 ha         1 UXP       0.168000
     29 H4         -33.6220    29.0860   -63.5350 h4         1 UXP       0.223000
     30 H5         -36.1870    22.3030   -68.4460 hc         1 UXP       0.078450
     31 H6         -36.9400    20.7560   -67.8180 hc         1 UXP       0.078450
     32 H7         -39.8660    30.5490   -68.8760 h1         1 UXP       0.051700
     33 H8         -38.8990    31.3620   -67.6440 h1         1 UXP       0.051700
     34 H9         -40.1340    30.1340   -65.8520 h1         1 UXP       0.094700
     35 H10        -41.6960    28.9240   -68.1750 hc         1 UXP       0.044200
     36 H11        -42.2980    29.6790   -66.7060 hc         1 UXP       0.044200
     37 H12        -42.5430    27.1950   -66.5550 hc         1 UXP       0.046200
     38 H13        -41.4190    27.7790   -65.3330 hc         1 UXP       0.046200
     39 H14        -40.8850    25.9760   -67.6610 hc         1 UXP       0.042200
     40 H15        -40.0240    26.1240   -66.1370 hc         1 UXP       0.042200
     41 H16        -38.4420    26.8060   -67.8280 h1         1 UXP       0.055700
     42 H17        -39.6420    27.7190   -68.7150 h1         1 UXP       0.055700
     43 H18        -36.9780    21.6920   -65.4970 hc         1 UXP       0.081700
     44 H19        -34.1240    27.0900   -64.8330 hn         1 UXP       0.511000
     45 H20        -33.9610    22.6820   -65.7500 hn         1 UXP       0.372000
     46 H21        -34.2140    31.5300   -63.0510 hn         1 UXP       0.374000
     47 H22        -41.7340    31.5900   -68.0680 ho         1 UXP       0.432000
     48 N12        -35.0300    26.8460   -65.2120 nu         1 UXP      -0.885800
@<TRIPOS>BOND
     1     1     5 1   
     2     1    16 1   
     3     1    26 1   
     4     1    27 1   
     5     2     3 1   
     6     2    15 2   
     7     2    28 1   
     8     3    21 2   
     9     3    48 1   
    10     4    17 2   
    11     4    22 1   
    12     4    29 1   
    13     5    16 1   
    14     5    30 1   
    15     5    31 1   
    16     6    13 ar  
    17     6    14 ar  
    18     7     8 1   
    19     7    25 1   
    20     7    32 1   
    21     7    33 1   
    22     8     9 1   
    23     8    19 1   
    24     8    34 1   
    25     9    10 1   
    26     9    35 1   
    27     9    36 1   
    28    10    11 1   
    29    10    37 1   
    30    10    38 1   
    31    11    12 1   
    32    11    39 1   
    33    11    40 1   
    34    12    19 1   
    35    12    41 1   
    36    12    42 1   
    37    13    19 1   
    38    13    24 ar  
    39    14    17 ar  
    40    14    48 1   
    41    15    16 1   
    42    15    20 1   
    43    16    43 1   
    44    17    18 ar  
    45    18    23 2   
    46    18    24 ar  
    47    20    21 1   
    48    20    45 1   
    49    22    23 1   
    50    22    46 1   
    51    25    47 1   
    52    44    48 1   
@<TRIPOS>SUBSTRUCTURE
     1 UXP         1 TEMP              0 ****  ****    0 ROOT
