@<TRIPOS>MOLECULE
UXP
   48    52     1     0     0
SMALL
abcg2


@<TRIPOS>ATOM
      1 C17        -38.1450    22.3210   -66.5100 cx         1 UXP      -0.111900
      2 C14        -36.3460    24.9140   -66.0290 cc         1 UXP      -0.221000
      3 C13        -35.2250    25.5620   -65.4810 cc         1 UXP       0.506900
      4 C22        -34.5860    29.7420   -63.8800 cc         1 UXP      -0.141100
      5 C18        -37.5470    22.5320   -67.8590 cx         1 UXP      -0.111900
      6 N10        -36.9850    27.7920   -65.9550 nb         1 UXP      -0.333000
      7 C02        -39.7030    30.6800   -67.9820 c3         1 UXP       0.147600
      8 C03        -39.9920    29.6340   -66.9090 c6         1 UXP       0.207500
      9 C04        -41.3380    28.9220   -67.1070 c6         1 UXP      -0.090400
     10 C05        -41.3220    27.5840   -66.3770 c6         1 UXP      -0.071400
     11 C06        -40.3400    26.6390   -67.0690 c6         1 UXP      -0.094400
     12 C07        -39.1450    27.4330   -67.6130 c6         1 UXP       0.234800
     13 C09        -37.8220    28.8600   -66.0900 ca         1 UXP       0.443900
     14 C11        -35.8860    27.9230   -65.2600 ca         1 UXP       0.488900
     15 C15        -35.9460    23.5970   -66.1540 cd         1 UXP      -0.093300
     16 C16        -36.6500    22.4120   -66.6560 cx         1 UXP      -0.085400
     17 C21        -35.5800    29.1750   -64.6610 ca         1 UXP      -0.328000
     18 C25        -36.5380    30.2020   -64.8400 ca         1 UXP       0.050000
     19 N08        -38.9210    28.6460   -66.8520 nh         1 UXP      -0.779300
     20 N19        -34.6850    23.5470   -65.7000 na         1 UXP       0.001800
     21 N20        -34.2200    24.7290   -65.2850 nd         1 UXP      -0.582800
     22 N23        -34.9850    30.9920   -63.6660 na         1 UXP       0.002500
     23 N24        -36.1600    31.3160   -64.2250 nc         1 UXP      -0.282400
     24 N26        -37.6690    30.0570   -65.5540 nb         1 UXP      -0.266000
     25 O01        -40.6730    31.7070   -67.9850 oh         1 UXP      -0.652000
     26 H1         -38.6490    23.1550   -66.0370 hc         1 UXP       0.078450
     27 H2         -38.5630    21.3520   -66.2730 hc         1 UXP       0.078450
     28 H3         -37.3000    25.3380   -66.2810 ha         1 UXP       0.168000
     29 H4         -33.6570    29.3670   -63.4830 h4         1 UXP       0.223000
     30 H5         -37.6400    23.5090   -68.3160 hc         1 UXP       0.078450
     31 H6         -37.5480    21.7080   -68.5610 hc         1 UXP       0.078450
     32 H7         -39.6260    30.1950   -68.9640 h1         1 UXP       0.051700
     33 H8         -38.7380    31.1420   -67.7710 h1         1 UXP       0.051700
     34 H9         -40.0170    30.1420   -65.9420 h1         1 UXP       0.094700
     35 H10        -41.5410    28.7560   -68.1720 hc         1 UXP       0.044200
     36 H11        -42.1370    29.5640   -66.7350 hc         1 UXP       0.044200
     37 H12        -42.3180    27.1400   -66.3330 hc         1 UXP       0.046200
     38 H13        -41.0130    27.7520   -65.3410 hc         1 UXP       0.046200
     39 H14        -40.8330    26.1490   -67.9120 hc         1 UXP       0.042200
     40 H15        -40.0230    25.8460   -66.3880 hc         1 UXP       0.042200
     41 H16        -38.2350    26.8440   -67.6260 h1         1 UXP       0.055700
     42 H17        -39.3410    27.7180   -68.6510 h1         1 UXP       0.055700
     43 H18        -36.0990    21.4830   -66.5580 hc         1 UXP       0.081700
     44 H19        -34.1920    27.0570   -64.5850 hn         1 UXP       0.511000
     45 H20        -34.0920    22.7360   -65.6430 hn         1 UXP       0.372000
     46 H21        -34.4850    31.6850   -63.1320 hn         1 UXP       0.374000
     47 H22        -41.4120    31.4390   -68.5340 ho         1 UXP       0.432000
     48 N12        -35.0440    26.8820   -65.0960 nu         1 UXP      -0.885800
@<TRIPOS>BOND
     1     1     5 1   
     2     1    16 1   
     3     1    26 1   
     4     1    27 1   
     5     2     3 1   
     6     2    15 2   
     7     2    28 1   
     8     3    21 2   
     9     3    48 1   
    10     4    17 2   
    11     4    22 1   
    12     4    29 1   
    13     5    16 1   
    14     5    30 1   
    15     5    31 1   
    16     6    13 ar  
    17     6    14 ar  
    18     7     8 1   
    19     7    25 1   
    20     7    32 1   
    21     7    33 1   
    22     8     9 1   
    23     8    19 1   
    24     8    34 1   
    25     9    10 1   
    26     9    35 1   
    27     9    36 1   
    28    10    11 1   
    29    10    37 1   
    30    10    38 1   
    31    11    12 1   
    32    11    39 1   
    33    11    40 1   
    34    12    19 1   
    35    12    41 1   
    36    12    42 1   
    37    13    19 1   
    38    13    24 ar  
    39    14    17 ar  
    40    14    48 1   
    41    15    16 1   
    42    15    20 1   
    43    16    43 1   
    44    17    18 ar  
    45    18    23 2   
    46    18    24 ar  
    47    20    21 1   
    48    20    45 1   
    49    22    23 1   
    50    22    46 1   
    51    25    47 1   
    52    44    48 1   
@<TRIPOS>SUBSTRUCTURE
     1 UXP         1 TEMP              0 ****  ****    0 ROOT
