@<TRIPOS>MOLECULE
UXQ
   32    32     1     0     0
SMALL
bcc


@<TRIPOS>ATOM
      1 CA         -22.0770   -18.7860     1.4260 c3         1 UXQ       0.020500
      2 CB         -22.9040   -18.2530     2.6040 c3         1 UXQ      -0.019100
      3 CG         -22.9490   -19.2030     3.7650 ca         1 UXQ      -0.024300
      4 CD1        -23.9740   -20.1350     3.9000 ca         1 UXQ      -0.117000
      5 CE1        -23.9870   -21.0400     4.9540 ca         1 UXQ      -0.114500
      6 O1         -22.3600   -24.2190     5.4800 o          1 UXQ      -0.543100
      7 C10        -20.2720   -24.5810     6.6240 c3         1 UXQ      -0.054000
      8 CE2        -21.9550   -20.0980     5.7850 ca         1 UXQ      -0.114500
      9 CD2        -21.9420   -19.2010     4.7300 ca         1 UXQ      -0.117000
     10 C          -22.7100   -20.0900     0.8790 c          1 UXQ       0.925600
     11 CZ         -22.9790   -21.0340     5.9110 ca         1 UXQ      -0.139300
     12 C8         -22.9940   -22.0030     7.0670 c3         1 UXQ       0.165300
     13 C9         -21.5770   -23.8530     6.3350 c          1 UXQ       0.662100
     14 N          -22.0410   -17.7550     0.3930 n8         1 UXQ      -0.861800
     15 N2         -21.7950   -22.8110     7.1510 ns         1 UXQ      -0.579900
     16 HA         -21.0760   -19.0320     1.8080 h1         1 UXQ       0.005700
     17 HB3        -22.4720   -17.3020     2.9320 hc         1 UXQ       0.036700
     18 H1         -23.9140   -18.0380     2.2490 hc         1 UXQ       0.036700
     19 HD1        -24.7680   -20.1650     3.1630 ha         1 UXQ       0.136000
     20 HE1        -24.7940   -21.7590     5.0310 ha         1 UXQ       0.110500
     21 HE2        -21.1580   -20.0660     6.5190 ha         1 UXQ       0.110500
     22 HD2        -21.1370   -18.4780     4.6550 ha         1 UXQ       0.136000
     23 H          -21.5260   -16.9560     0.7440 hn         1 UXQ       0.306800
     24 H2         -21.5090   -18.0870    -0.4020 hn         1 UXQ       0.306800
     25 CL1        -19.7410   -25.5280     5.2180 cl         1 UXQ      -0.148400
     26 OXT        -22.0530   -21.1370     1.0440 o          1 UXQ      -0.825300
     27 H3         -19.4740   -23.8900     6.8900 h1         1 UXQ       0.065700
     28 H4         -20.4180   -25.2690     7.4570 h1         1 UXQ       0.065700
     29 H5         -23.0750   -21.4610     8.0100 h1         1 UXQ       0.043700
     30 H6         -23.8680   -22.6520     7.0000 h1         1 UXQ       0.043700
     31 H7         -21.0780   -22.5290     7.8000 hn         1 UXQ       0.302500
     32 O          -23.8280   -19.9840     0.3370 o          1 UXQ      -0.825300
@<TRIPOS>BOND
     1     1     2 1   
     2     1    10 1   
     3     1    14 1   
     4     1    16 1   
     5     2     3 1   
     6     2    17 1   
     7     2    18 1   
     8     3     4 ar  
     9     3     9 ar  
    10     4     5 ar  
    11     4    19 1   
    12     5    11 ar  
    13     5    20 1   
    14     6    13 2   
    15     7    13 1   
    16     7    25 1   
    17     7    27 1   
    18     7    28 1   
    19     8     9 ar  
    20     8    11 ar  
    21     8    21 1   
    22     9    22 1   
    23    10    26 1   
    24    10    32 1   
    25    11    12 1   
    26    12    15 1   
    27    12    29 1   
    28    12    30 1   
    29    13    15 1   
    30    14    23 1   
    31    14    24 1   
    32    15    31 1   
@<TRIPOS>SUBSTRUCTURE
     1 UXQ         1 TEMP              0 ****  ****    0 ROOT
