@<TRIPOS>MOLECULE
UXQ
   32    32     1     0     0
SMALL
No Charge or Current Charge


@<TRIPOS>ATOM
      1 CA         -22.0720   -18.5670     1.4460 c3         1 UXQ       0.020500
      2 CB         -23.2440   -18.4010     2.4500 c3         1 UXQ      -0.019100
      3 CG         -23.0880   -19.2810     3.6860 ca         1 UXQ      -0.024300
      4 CD1        -23.8890   -20.4270     3.8540 ca         1 UXQ      -0.117000
      5 CE1        -23.7440   -21.2340     4.9960 ca         1 UXQ      -0.114500
      6 O1         -23.0590   -24.4900     6.3800 o          1 UXQ      -0.543100
      7 C10        -20.6780   -24.9880     6.3980 c3         1 UXQ      -0.054000
      8 CE2        -21.9970   -19.7590     5.8180 ca         1 UXQ      -0.114500
      9 CD2        -22.1420   -18.9520     4.6760 ca         1 UXQ      -0.117000
     10 C          -21.9990   -20.0520     0.8720 c          1 UXQ       0.925600
     11 CZ         -22.7990   -20.9030     5.9850 ca         1 UXQ      -0.139300
     12 C8         -22.6410   -21.7780     7.2200 c3         1 UXQ       0.165300
     13 C9         -21.9170   -24.1020     6.5830 c          1 UXQ       0.662100
     14 N          -22.0920   -17.4420     0.4370 n8         1 UXQ      -0.861800
     15 N2         -21.6390   -22.8200     7.0050 ns         1 UXQ      -0.579900
     16 HA         -21.1460   -18.4150     2.0180 h1         1 UXQ       0.005700
     17 HB3        -23.2990   -17.3530     2.7680 hc         1 UXQ       0.036700
     18 H1         -24.1940   -18.6100     1.9430 hc         1 UXQ       0.036700
     19 HD1        -24.6230   -20.6960     3.0970 ha         1 UXQ       0.136000
     20 HE1        -24.3680   -22.1180     5.1120 ha         1 UXQ       0.110500
     21 HE2        -21.2600   -19.4930     6.5730 ha         1 UXQ       0.110500
     22 HD2        -21.5180   -18.0680     4.5590 ha         1 UXQ       0.136000
     23 H          -22.0390   -16.5440     0.9260 hn         1 UXQ       0.306800
     24 H2         -21.2390   -17.4810    -0.1300 hn         1 UXQ       0.306800
     25 Cl1        -21.0450   -26.6830     5.8370 cl         1 UXQ      -0.148400
     26 OXT        -20.9140   -20.6260     0.8790 o          1 UXQ      -0.825300
     27 H3         -20.0200   -24.5230     5.6540 h1         1 UXQ       0.065700
     28 H4         -20.1470   -25.0570     7.3540 h1         1 UXQ       0.065700
     29 H5         -22.3240   -21.1600     8.0710 h1         1 UXQ       0.043700
     30 H6         -23.6050   -22.2340     7.4840 h1         1 UXQ       0.043700
     31 H7         -20.6640   -22.5850     7.1420 hn         1 UXQ       0.302500
     32 O          -23.0000   -20.5530     0.3640 o          1 UXQ      -0.825300
@<TRIPOS>BOND
     1     1     2 1   
     2     1    10 1   
     3     1    14 1   
     4     1    16 1   
     5     2     3 1   
     6     2    17 1   
     7     2    18 1   
     8     3     4 ar  
     9     3     9 ar  
    10     4     5 ar  
    11     4    19 1   
    12     5    11 ar  
    13     5    20 1   
    14     6    13 2   
    15     7    13 1   
    16     7    25 1   
    17     7    27 1   
    18     7    28 1   
    19     8     9 ar  
    20     8    11 ar  
    21     8    21 1   
    22     9    22 1   
    23    10    26 1   
    24    10    32 1   
    25    11    12 1   
    26    12    15 1   
    27    12    29 1   
    28    12    30 1   
    29    13    15 1   
    30    14    23 1   
    31    14    24 1   
    32    15    31 1   
@<TRIPOS>SUBSTRUCTURE
     1 UXQ         1 TEMP              0 ****  ****    0 ROOT
