@<TRIPOS>MOLECULE
UXR
   13    12     1     0     0
SMALL
No Charge or Current Charge


@<TRIPOS>ATOM
      1 C1          -6.2440    25.9490     8.2820 c3         1 UXR      -0.000100
      2 C2          -4.7660    25.5030     8.3170 c3         1 UXR      -0.484700
      3 C3          -3.8220    26.4590     7.6290 c          1 UXR       0.751000
      4 O1          -3.1780    26.0240     6.6850 o          1 UXR      -0.822000
      5 O2          -3.8710    27.6510     7.8870 o          1 UXR      -0.822000
      6 P1          -4.0730    25.2780     9.9790 p5         1 UXR       1.344500
      7 O3          -4.4260    26.4230    10.8680 o          1 UXR      -0.961500
      8 O4          -2.5920    25.1140     9.9080 o          1 UXR      -0.961500
      9 O5          -4.6670    24.0300    10.5410 o          1 UXR      -0.961500
     10 H1          -6.8830    25.2030     8.7690 hc         1 UXR      -0.029300
     11 H2          -6.3900    26.9090     8.7910 hc         1 UXR      -0.029300
     12 H3          -6.5830    26.0570     7.2450 hc         1 UXR      -0.029300
     13 H4          -4.6880    24.5140     7.8490 hc         1 UXR       0.004700
@<TRIPOS>BOND
     1     1     2 1   
     2     1    10 1   
     3     1    11 1   
     4     1    12 1   
     5     2     3 1   
     6     2     6 1   
     7     2    13 1   
     8     3     4 1   
     9     3     5 1   
    10     6     7 1   
    11     6     8 1   
    12     6     9 1   
@<TRIPOS>SUBSTRUCTURE
     1 UXR         1 TEMP              0 ****  ****    0 ROOT
