@<TRIPOS>MOLECULE
UXR
   13    12     1     0     0
SMALL
abcg2


@<TRIPOS>ATOM
      1 C1          -6.1950    25.9500     8.3300 c3         1 UXR      -0.000100
      2 C2          -4.7200    25.5380     8.3160 c3         1 UXR      -0.484700
      3 C3          -3.8670    26.5120     7.4950 c          1 UXR       0.751000
      4 O1          -3.0360    26.0150     6.6790 o          1 UXR      -0.822000
      5 O2          -4.0390    27.7520     7.6630 o          1 UXR      -0.822000
      6 P1          -4.0930    25.2200    10.0650 p5         1 UXR       1.344500
      7 O3          -4.4850    26.4340    10.9180 o          1 UXR      -0.961500
      8 O4          -2.5730    25.0240     9.9690 o          1 UXR      -0.961500
      9 O5          -4.8290    23.9370    10.4830 o          1 UXR      -0.961500
     10 H1          -6.7950    25.2240     8.8830 hc         1 UXR      -0.029300
     11 H2          -6.3150    26.9220     8.8070 hc         1 UXR      -0.029300
     12 H3          -6.6040    26.0230     7.3160 hc         1 UXR      -0.029300
     13 H4          -4.6330    24.5640     7.8260 hc         1 UXR       0.004700
@<TRIPOS>BOND
     1     1     2 1   
     2     1    10 1   
     3     1    11 1   
     4     1    12 1   
     5     2     3 1   
     6     2     6 1   
     7     2    13 1   
     8     3     4 1   
     9     3     5 1   
    10     6     7 1   
    11     6     8 1   
    12     6     9 1   
@<TRIPOS>SUBSTRUCTURE
     1 UXR         1 TEMP              0 ****  ****    0 ROOT
