@<TRIPOS>MOLECULE
UXS
   21    20     1     0     0
SMALL
bcc


@<TRIPOS>ATOM
      1 C01          7.8190    -3.0220    19.7150 c3         1 UXS       0.102400
      2 O02          6.4660    -3.3600    19.5050 oh         1 UXS      -0.592800
      3 C03          7.9330    -1.5560    20.1280 c3         1 UXS       0.156500
      4 C04          7.4070    -0.6180    19.0440 c3         1 UXS      -0.063400
      5 C05          7.3970     0.8370    19.4860 c3         1 UXS       0.023700
      6 S06          6.7510     1.9780    18.2320 ss         1 UXS      -0.354200
      7 C07          4.9870     1.5910    18.3040 c3         1 UXS      -0.006000
      8 N08          9.3010    -1.1950    20.4680 n8         1 UXS      -0.885800
      9 H1           6.4270    -4.2750    19.2140 ho         1 UXS       0.406000
     10 H2           7.3260    -1.4160    21.0300 h1         1 UXS       0.071700
     11 H3           6.3990    -0.9280    18.7610 hc         1 UXS       0.053200
     12 H4           8.0280    -0.7170    18.1470 hc         1 UXS       0.053200
     13 H5           8.4100     1.1770    19.7030 h1         1 UXS       0.075200
     14 H6           6.8140     0.9650    20.4020 h1         1 UXS       0.075200
     15 H7           4.4820     2.2350    17.5860 h1         1 UXS       0.058033
     16 H8           4.7870     0.5550    18.0360 h1         1 UXS       0.058033
     17 H9           4.5830     1.7920    19.2960 h1         1 UXS       0.058033
     18 H10          9.6450    -1.7940    21.2090 hn         1 UXS       0.339300
     19 H11          9.9040    -1.3640    19.6700 hn         1 UXS       0.339300
     20 H13          8.2640    -3.6390    20.5090 h1         1 UXS       0.015700
     21 H14          8.4240    -3.1820    18.8100 h1         1 UXS       0.015700
@<TRIPOS>BOND
     1     1     2 1   
     2     1     3 1   
     3     1    20 1   
     4     1    21 1   
     5     2     9 1   
     6     3     4 1   
     7     3     8 1   
     8     3    10 1   
     9     4     5 1   
    10     4    11 1   
    11     4    12 1   
    12     5     6 1   
    13     5    13 1   
    14     5    14 1   
    15     6     7 1   
    16     7    15 1   
    17     7    16 1   
    18     7    17 1   
    19     8    18 1   
    20     8    19 1   
@<TRIPOS>SUBSTRUCTURE
     1 UXS         1 TEMP              0 ****  ****    0 ROOT
