@<TRIPOS>MOLECULE
UXS
   21    20     1     0     0
SMALL
No Charge or Current Charge


@<TRIPOS>ATOM
      1 C01          7.8390    -3.0590    19.7030 c3         1 UXS       0.125600
      2 O02          6.4730    -3.4600    19.5190 oh         1 UXS      -0.655000
      3 C03          7.9390    -1.5610    20.1310 c3         1 UXS       0.156500
      4 C04          7.4280    -0.5880    19.0350 c3         1 UXS      -0.063400
      5 C05          7.4080     0.8940    19.4750 c3         1 UXS       0.071600
      6 S06          6.7460     1.9860    18.1300 ss         1 UXS      -0.450000
      7 C07          4.9300     1.6530    18.2850 c3         1 UXS       0.041900
      8 N08          9.3280    -1.2140    20.5240 n8         1 UXS      -0.996200
      9 H1           6.4830    -4.4090    19.2620 ho         1 UXS       0.445000
     10 H2           7.3020    -1.4310    21.0190 h1         1 UXS       0.071700
     11 H3           6.4110    -0.8800    18.7490 hc         1 UXS       0.053200
     12 H4           8.0480    -0.6890    18.1360 hc         1 UXS       0.053200
     13 H5           8.4280     1.2190    19.7160 h1         1 UXS       0.075200
     14 H6           6.7930     1.0110    20.3770 h1         1 UXS       0.075200
     15 H7           4.3770     2.2830    17.5760 h1         1 UXS       0.058033
     16 H8           4.7170     0.6000    18.0640 h1         1 UXS       0.058033
     17 H9           4.5930     1.8830    19.3040 h1         1 UXS       0.058033
     18 H10          9.6420    -1.8620    21.2570 hn         1 UXS       0.394500
     19 H11          9.9590    -1.4170    19.7400 hn         1 UXS       0.394500
     20 H13          8.3020    -3.6830    20.4790 h1         1 UXS       0.015700
     21 H14          8.4060    -3.2100    18.7740 h1         1 UXS       0.015700
@<TRIPOS>BOND
     1     1     2 1   
     2     1     3 1   
     3     1    20 1   
     4     1    21 1   
     5     2     9 1   
     6     3     4 1   
     7     3     8 1   
     8     3    10 1   
     9     4     5 1   
    10     4    11 1   
    11     4    12 1   
    12     5     6 1   
    13     5    13 1   
    14     5    14 1   
    15     6     7 1   
    16     7    15 1   
    17     7    16 1   
    18     7    17 1   
    19     8    18 1   
    20     8    19 1   
@<TRIPOS>SUBSTRUCTURE
     1 UXS         1 TEMP              0 ****  ****    0 ROOT
