@<TRIPOS>MOLECULE
UXT
   84    89     1     0     0
SMALL
No Charge or Current Charge


@<TRIPOS>ATOM
      1 C10         14.5790   -22.0750   -15.1560 ca         1 UXT      -0.183500
      2 C13         14.6820   -21.4940   -13.8760 ca         1 UXT       0.322000
      3 C15         13.4810   -20.3730   -11.9190 c6         1 UXT       0.214800
      4 C17         11.3890   -19.0630   -12.6250 c6         1 UXT      -0.118400
      5 C20         10.6990   -18.4920    -9.8210 c6         1 UXT       0.209300
      6 C22          9.2070   -16.6580   -10.7150 ca         1 UXT       0.399900
      7 C24          7.7370   -15.5850    -9.3200 ca         1 UXT       0.191900
      8 C26          8.0380   -14.6870   -11.3930 ca         1 UXT       0.404900
      9 C28          7.9330   -13.6920   -13.7450 c3         1 UXT       0.283100
     10 C02         20.9920   -25.3690   -15.8160 c6         1 UXT      -0.048000
     11 C03         20.8380   -26.0680   -17.2060 c3         1 UXT      -0.083100
     12 C04         19.6310   -25.3140   -15.0600 c6         1 UXT      -0.066900
     13 C05         18.6230   -24.3370   -15.7190 c6         1 UXT       0.168800
     14 C07         18.2150   -21.9860   -16.3880 c3         1 UXT       0.223100
     15 C08         16.9770   -21.8140   -15.5130 ca         1 UXT      -0.128300
     16 C09         15.7140   -22.2340   -15.9690 ca         1 UXT      -0.057500
     17 C11         17.0890   -21.2360   -14.2360 ca         1 UXT      -0.057500
     18 C12         15.9510   -21.0770   -13.4260 ca         1 UXT      -0.183500
     19 C16         12.0260   -19.9410   -11.5080 c6         1 UXT       0.127400
     20 C18         10.0090   -18.4990   -12.2170 c6         1 UXT       0.209300
     21 C19         12.0760   -19.0830   -10.2130 c6         1 UXT      -0.118400
     22 C29          7.2130   -14.8620   -14.4120 ca         1 UXT      -0.115300
     23 C30          7.9470   -15.8650   -15.0790 ca         1 UXT      -0.098500
     24 C31          7.2840   -16.9450   -15.6880 ca         1 UXT      -0.109000
     25 C32          5.8820   -17.0290   -15.6390 ca         1 UXT      -0.104000
     26 C33          5.1440   -16.0310   -14.9820 ca         1 UXT      -0.109000
     27 C34          5.8060   -14.9510   -14.3720 ca         1 UXT      -0.098500
     28 C35          8.9620   -15.6890   -11.6930 ca         1 UXT      -0.357000
     29 C37         12.3870   -22.3340   -13.1230 c6         1 UXT       0.127800
     30 C38         11.3420   -22.3220   -11.9620 c          1 UXT       0.559000
     31 C40         20.4620   -22.9670   -16.6130 c6         1 UXT       0.168800
     32 C41         21.5160   -23.9100   -15.9740 c6         1 UXT      -0.066900
     33 N06         19.1880   -22.9630   -15.8450 n3         1 UXT      -0.721600
     34 N14         13.5270   -21.3400   -13.0670 nh         1 UXT      -0.819400
     35 N21         10.1100   -17.7170   -10.9510 nh         1 UXT      -0.762300
     36 N23          8.5970   -16.6030    -9.5150 nb         1 UXT      -0.293000
     37 N25          7.4230   -14.6200   -10.2060 nb         1 UXT      -0.291000
     38 N27          7.7080   -13.6870   -12.2890 nu         1 UXT      -0.939100
     39 N36         11.1930   -21.1360   -11.2810 ns         1 UXT      -0.504900
     40 H1          13.6150   -22.3970   -15.5350 ha         1 UXT       0.111500
     41 H2          13.9710   -20.8280   -11.0460 h1         1 UXT       0.053200
     42 H3          14.0510   -19.4650   -12.1690 h1         1 UXT       0.053200
     43 H4          11.2820   -19.6390   -13.5530 hc         1 UXT       0.063950
     44 H5          12.0570   -18.2240   -12.8640 hc         1 UXT       0.063950
     45 H6          10.8480   -17.8440    -8.9430 h1         1 UXT       0.066450
     46 H7          10.0170   -19.2990    -9.5160 h1         1 UXT       0.066450
     47 H8           7.2430   -15.5400    -8.3510 h5         1 UXT       0.040100
     48 H9           9.0100   -13.7470   -13.9580 h1         1 UXT       0.053700
     49 H10          7.5650   -12.7530   -14.1830 h1         1 UXT       0.053700
     50 H11         22.1840   -25.7880   -14.0040 hc         1 UXT       0.032367
     51 H12         21.6680   -27.2440   -14.8630 hc         1 UXT       0.032367
     52 H13         22.9910   -26.2590   -15.5050 hc         1 UXT       0.032367
     53 H14         20.4770   -27.0970   -17.0960 hc         1 UXT       0.032367
     54 H15         20.1310   -25.5470   -17.8610 hc         1 UXT       0.032367
     55 H16         21.7960   -26.1120   -17.7380 hc         1 UXT       0.032367
     56 H17         19.7970   -24.9950   -14.0210 hc         1 UXT       0.045450
     57 H18         19.1860   -26.3160   -15.0030 hc         1 UXT       0.045450
     58 H19         17.7130   -24.3230   -15.1020 h1         1 UXT       0.030450
     59 H20         18.3290   -24.7210   -16.7070 h1         1 UXT       0.030450
     60 H21         18.6950   -21.0030   -16.4850 h1         1 UXT       0.034200
     61 H22         17.9060   -22.2880   -17.3980 h1         1 UXT       0.034200
     62 H23         15.6110   -22.6840   -16.9540 ha         1 UXT       0.115500
     63 H24         18.0620   -20.9150   -13.8700 ha         1 UXT       0.115500
     64 H25         16.0720   -20.6390   -12.4410 ha         1 UXT       0.111500
     65 H26          9.6300   -17.8790   -13.0420 h1         1 UXT       0.066450
     66 H27          9.2950   -19.3270   -12.0920 h1         1 UXT       0.066450
     67 H28         12.4660   -19.6820    -9.3790 hc         1 UXT       0.063950
     68 H29         12.7850   -18.2550   -10.3500 hc         1 UXT       0.063950
     69 H30          9.0320   -15.8110   -15.1250 ha         1 UXT       0.113000
     70 H31          7.8570   -17.7170   -16.1980 ha         1 UXT       0.114500
     71 H32          5.3700   -17.8650   -16.1110 ha         1 UXT       0.115000
     72 H33          4.0580   -16.0940   -14.9450 ha         1 UXT       0.114500
     73 H34          5.2260   -14.1840   -13.8630 ha         1 UXT       0.113000
     74 H35          9.4790   -15.7120   -12.6430 ha         1 UXT       0.132000
     75 H36         11.8020   -22.1710   -14.0390 h1         1 UXT       0.069700
     76 H37         12.7840   -23.3590   -13.1610 h1         1 UXT       0.069700
     77 H38         20.8840   -21.9510   -16.6480 h1         1 UXT       0.030450
     78 H39         20.2800   -23.2700   -17.6540 h1         1 UXT       0.030450
     79 H40         22.4330   -23.8970   -16.5790 hc         1 UXT       0.045450
     80 H41         21.7940   -23.5070   -14.9900 hc         1 UXT       0.045450
     81 H43          7.0230   -13.0200   -11.9360 hn         1 UXT       0.508000
     82 H44         10.5160   -21.1330   -10.5290 hn         1 UXT       0.321500
     83 O39         10.6760   -23.3010   -11.6560 o          1 UXT      -0.565000
     84 C01         22.0170   -26.2140   -15.0010 c3         1 UXT      -0.083100
@<TRIPOS>BOND
     1     1     2 ar  
     2     1    16 ar  
     3     1    40 1   
     4     2    18 ar  
     5     2    34 1   
     6     3    19 1   
     7     3    34 1   
     8     3    41 1   
     9     3    42 1   
    10     4    19 1   
    11     4    20 1   
    12     4    43 1   
    13     4    44 1   
    14     5    21 1   
    15     5    35 1   
    16     5    45 1   
    17     5    46 1   
    18     6    28 ar  
    19     6    35 1   
    20     6    36 ar  
    21     7    36 ar  
    22     7    37 ar  
    23     7    47 1   
    24     8    28 ar  
    25     8    37 ar  
    26     8    38 1   
    27     9    22 1   
    28     9    38 1   
    29     9    48 1   
    30     9    49 1   
    31    10    11 1   
    32    10    12 1   
    33    10    32 1   
    34    10    84 1   
    35    11    53 1   
    36    11    54 1   
    37    11    55 1   
    38    12    13 1   
    39    12    56 1   
    40    12    57 1   
    41    13    33 1   
    42    13    58 1   
    43    13    59 1   
    44    14    15 1   
    45    14    33 1   
    46    14    60 1   
    47    14    61 1   
    48    15    16 ar  
    49    15    17 ar  
    50    16    62 1   
    51    17    18 ar  
    52    17    63 1   
    53    18    64 1   
    54    19    21 1   
    55    19    39 1   
    56    20    35 1   
    57    20    65 1   
    58    20    66 1   
    59    21    67 1   
    60    21    68 1   
    61    22    23 ar  
    62    22    27 ar  
    63    23    24 ar  
    64    23    69 1   
    65    24    25 ar  
    66    24    70 1   
    67    25    26 ar  
    68    25    71 1   
    69    26    27 ar  
    70    26    72 1   
    71    27    73 1   
    72    28    74 1   
    73    29    30 1   
    74    29    34 1   
    75    29    75 1   
    76    29    76 1   
    77    30    39 1   
    78    30    83 2   
    79    31    32 1   
    80    31    33 1   
    81    31    77 1   
    82    31    78 1   
    83    32    79 1   
    84    32    80 1   
    85    38    81 1   
    86    39    82 1   
    87    50    84 1   
    88    51    84 1   
    89    52    84 1   
@<TRIPOS>SUBSTRUCTURE
     1 UXT         1 TEMP              0 ****  ****    0 ROOT
