@<TRIPOS>MOLECULE
UXT
   84    89     1     0     0
SMALL
bcc


@<TRIPOS>ATOM
      1 C10         13.8710   -22.9440   -15.0490 ca         1 UXT      -0.201500
      2 C13         13.9120   -22.0430   -13.9750 ca         1 UXT       0.183600
      3 C15         12.9000   -21.0050   -12.0000 c6         1 UXT       0.214800
      4 C17         10.7550   -19.8160   -12.5940 c6         1 UXT      -0.118400
      5 C20         10.3080   -19.1680    -9.7990 c6         1 UXT       0.209300
      6 C22          9.9280   -17.0730   -10.9940 ca         1 UXT       0.728200
      7 C24         10.4730   -15.1250    -9.9680 ca         1 UXT       0.717900
      8 C26          9.9530   -14.9880   -12.1550 ca         1 UXT       0.733200
      9 C28          9.4610   -14.6850   -14.5530 c3         1 UXT       0.283100
     10 C02         21.1130   -23.9910   -15.3260 c6         1 UXT      -0.048000
     11 C03         21.3560   -25.1290   -16.3200 c3         1 UXT      -0.083100
     12 C04         19.8200   -24.2250   -14.5350 c6         1 UXT      -0.066900
     13 C05         18.5630   -24.0380   -15.3690 c6         1 UXT       0.168800
     14 C07         17.2880   -22.4820   -16.6830 c3         1 UXT       0.223100
     15 C08         16.1170   -22.3460   -15.7460 ca         1 UXT      -0.128300
     16 C09         14.9530   -23.0840   -15.9060 ca         1 UXT      -0.075500
     17 C11         16.1630   -21.4590   -14.6740 ca         1 UXT      -0.075500
     18 C12         15.0980   -21.3080   -13.8040 ca         1 UXT      -0.201500
     19 C16         11.5090   -20.6180   -11.5200 c6         1 UXT       0.127400
     20 C18          9.4540   -19.2480   -12.0410 c6         1 UXT       0.209300
     21 C19         11.6370   -19.7770   -10.2440 c6         1 UXT      -0.118400
     22 C29          8.0170   -15.1160   -14.6870 ca         1 UXT      -0.115300
     23 C30          7.6880   -16.2200   -15.4680 ca         1 UXT      -0.116500
     24 C31          6.3630   -16.6020   -15.6350 ca         1 UXT      -0.127000
     25 C32          5.3490   -15.8830   -15.0170 ca         1 UXT      -0.122000
     26 C33          5.6700   -14.7830   -14.2310 ca         1 UXT      -0.127000
     27 C34          6.9950   -14.4030   -14.0670 ca         1 UXT      -0.116500
     28 C35          9.7430   -16.3670   -12.1880 ca         1 UXT      -0.505600
     29 C37         11.8920   -23.0000   -13.0550 c6         1 UXT       0.127800
     30 C38         10.9110   -22.9830   -11.9020 c          1 UXT       0.701500
     31 C40         19.6840   -22.5220   -16.8410 c6         1 UXT       0.168800
     32 C41         20.9800   -22.6490   -16.0560 c6         1 UXT      -0.066900
     33 N06         18.5320   -22.7210   -15.9800 n3         1 UXT      -0.721600
     34 N14         12.8280   -21.8990   -13.1290 nh         1 UXT      -0.681000
     35 N21          9.7090   -18.4120   -10.8840 nh         1 UXT      -0.762300
     36 N23         10.3100   -16.4300    -9.8750 nb         1 UXT      -0.819000
     37 N25         10.3170   -14.3550   -11.0240 nb         1 UXT      -0.817000
     38 N27          9.8230   -14.2090   -13.2460 nu         1 UXT      -0.883900
     39 N36         10.7970   -21.8480   -11.2030 ns         1 UXT      -0.571900
     40 H1          12.9920   -23.5450   -15.2380 ha         1 UXT       0.129500
     41 H2          13.4700   -21.4310   -11.1610 h1         1 UXT       0.053200
     42 H3          13.4040   -20.0870   -12.3010 h1         1 UXT       0.053200
     43 H4          10.5460   -20.4440   -13.4630 hc         1 UXT       0.063950
     44 H5          11.3880   -18.9920   -12.9390 hc         1 UXT       0.063950
     45 H6          10.4620   -18.5240    -8.9390 h1         1 UXT       0.066450
     46 H7           9.6000   -19.9430    -9.4900 h1         1 UXT       0.066450
     47 H8          10.7750   -14.6220    -9.0530 h5         1 UXT       0.040100
     48 H9          10.1170   -15.5070   -14.8570 h1         1 UXT       0.053700
     49 H10          9.6590   -13.8700   -15.2510 h1         1 UXT       0.053700
     50 H11         22.1620   -23.1300   -13.6300 hc         1 UXT       0.032367
     51 H12         22.4000   -24.8700   -13.8110 hc         1 UXT       0.032367
     52 H13         23.2310   -23.7500   -14.8910 hc         1 UXT       0.032367
     53 H14         21.4500   -26.0830   -15.7960 hc         1 UXT       0.032367
     54 H15         20.5550   -25.2380   -17.0530 hc         1 UXT       0.032367
     55 H16         22.2820   -24.9630   -16.8750 hc         1 UXT       0.032367
     56 H17         19.7860   -23.5210   -13.6970 hc         1 UXT       0.045450
     57 H18         19.8220   -25.2300   -14.1010 hc         1 UXT       0.045450
     58 H19         17.6890   -24.1480   -14.7230 h1         1 UXT       0.030450
     59 H20         18.4810   -24.8320   -16.1320 h1         1 UXT       0.030450
     60 H21         17.4020   -21.5540   -17.2520 h1         1 UXT       0.034200
     61 H22         17.0740   -23.2700   -17.4260 h1         1 UXT       0.034200
     62 H23         14.8790   -23.7970   -16.7200 ha         1 UXT       0.133500
     63 H24         17.0630   -20.8820   -14.4980 ha         1 UXT       0.133500
     64 H25         15.2140   -20.6200   -12.9790 ha         1 UXT       0.129500
     65 H26          8.9090   -18.7010   -12.8070 h1         1 UXT       0.066450
     66 H27          8.7900   -20.0590   -11.7280 h1         1 UXT       0.066450
     67 H28         12.0560   -20.3890    -9.4400 hc         1 UXT       0.063950
     68 H29         12.3470   -18.9680   -10.4340 hc         1 UXT       0.063950
     69 H30          8.4760   -16.7900   -15.9460 ha         1 UXT       0.131000
     70 H31          6.1250   -17.4650   -16.2430 ha         1 UXT       0.132500
     71 H32          4.3160   -16.1800   -15.1430 ha         1 UXT       0.133000
     72 H33          4.8850   -14.2190   -13.7430 ha         1 UXT       0.132500
     73 H34          7.2340   -13.5460   -13.4490 ha         1 UXT       0.131000
     74 H35          9.4600   -16.8570   -13.1050 ha         1 UXT       0.150000
     75 H36         11.2780   -23.0440   -13.9620 h1         1 UXT       0.069700
     76 H37         12.4160   -23.9610   -12.9950 h1         1 UXT       0.069700
     77 H38         19.6240   -21.5200   -17.2740 h1         1 UXT       0.030450
     78 H39         19.6820   -23.2260   -17.6920 h1         1 UXT       0.030450
     79 H40         21.8280   -22.5030   -16.7320 hc         1 UXT       0.045450
     80 H41         21.0200   -21.8380   -15.3210 hc         1 UXT       0.045450
     81 H43         10.0110   -13.2280   -13.1210 hn         1 UXT       0.452800
     82 H44         10.1080   -21.8460   -10.4630 hn         1 UXT       0.321500
     83 O39         10.2550   -23.9860   -11.6630 o          1 UXT      -0.640500
     84 C01         22.2940   -23.9310   -14.3600 c3         1 UXT      -0.083100
@<TRIPOS>BOND
     1     1     2 ar  
     2     1    16 ar  
     3     1    40 1   
     4     2    18 ar  
     5     2    34 1   
     6     3    19 1   
     7     3    34 1   
     8     3    41 1   
     9     3    42 1   
    10     4    19 1   
    11     4    20 1   
    12     4    43 1   
    13     4    44 1   
    14     5    21 1   
    15     5    35 1   
    16     5    45 1   
    17     5    46 1   
    18     6    28 ar  
    19     6    35 1   
    20     6    36 ar  
    21     7    36 ar  
    22     7    37 ar  
    23     7    47 1   
    24     8    28 ar  
    25     8    37 ar  
    26     8    38 1   
    27     9    22 1   
    28     9    38 1   
    29     9    48 1   
    30     9    49 1   
    31    10    11 1   
    32    10    12 1   
    33    10    32 1   
    34    10    84 1   
    35    11    53 1   
    36    11    54 1   
    37    11    55 1   
    38    12    13 1   
    39    12    56 1   
    40    12    57 1   
    41    13    33 1   
    42    13    58 1   
    43    13    59 1   
    44    14    15 1   
    45    14    33 1   
    46    14    60 1   
    47    14    61 1   
    48    15    16 ar  
    49    15    17 ar  
    50    16    62 1   
    51    17    18 ar  
    52    17    63 1   
    53    18    64 1   
    54    19    21 1   
    55    19    39 1   
    56    20    35 1   
    57    20    65 1   
    58    20    66 1   
    59    21    67 1   
    60    21    68 1   
    61    22    23 ar  
    62    22    27 ar  
    63    23    24 ar  
    64    23    69 1   
    65    24    25 ar  
    66    24    70 1   
    67    25    26 ar  
    68    25    71 1   
    69    26    27 ar  
    70    26    72 1   
    71    27    73 1   
    72    28    74 1   
    73    29    30 1   
    74    29    34 1   
    75    29    75 1   
    76    29    76 1   
    77    30    39 1   
    78    30    83 2   
    79    31    32 1   
    80    31    33 1   
    81    31    77 1   
    82    31    78 1   
    83    32    79 1   
    84    32    80 1   
    85    38    81 1   
    86    39    82 1   
    87    50    84 1   
    88    51    84 1   
    89    52    84 1   
@<TRIPOS>SUBSTRUCTURE
     1 UXT         1 TEMP              0 ****  ****    0 ROOT
