@<TRIPOS>MOLECULE
UXU
   33    35     1     0     0
SMALL
abcg2


@<TRIPOS>ATOM
      1 C1           9.4180     0.7610    11.4810 c5         1 UXU       0.196600
      2 C2          10.2800     0.5530    12.7620 c5         1 UXU       0.128000
      3 C3          10.3580     0.2280    10.4380 cc         1 UXU       0.008700
      4 O4           9.1940     2.1380    11.2350 oh         1 UXU      -0.619000
      5 C8          10.2480    -0.1740     9.1340 cd         1 UXU      -0.394500
      6 C9          11.6840     0.1570    10.9300 cc         1 UXU      -0.115300
      7 C12         12.5890    -0.2860     9.9980 cd         1 UXU      -0.118000
      8 C15          8.1620    -1.9670     8.7460 c3         1 UXU      -0.344100
      9 C16         14.0360    -0.4820    10.1400 ca         1 UXU       0.025000
     10 C19         16.2760    -0.2390     9.3410 ca         1 UXU       0.198000
     11 C20         15.8940    -1.3020    11.4030 ca         1 UXU       0.198000
     12 C21         16.8040    -0.8700    10.4530 ca         1 UXU      -0.181000
     13 C5          11.7550     0.6220    12.3590 c5         1 UXU      -0.048100
     14 F6           9.9500     1.4400    13.7450 f          1 UXU      -0.111500
     15 F7           9.9980    -0.6980    13.2690 f          1 UXU      -0.111500
     16 S10         11.7880    -0.6360     8.4980 ss         1 UXU       0.365000
     17 S11          8.7920    -0.4060     8.1850 sy         1 UXU       1.128500
     18 O13          7.8380     0.6230     8.5410 o          1 UXU      -0.521000
     19 O14          9.1950    -0.5350     6.7980 o          1 UXU      -0.521000
     20 C17         14.9220    -0.0360     9.1540 ca         1 UXU      -0.152500
     21 C18         14.5300    -1.1260    11.2800 ca         1 UXU      -0.152500
     22 F22         17.1330     0.2110     8.3970 f          1 UXU      -0.169500
     23 F23         16.3660    -1.9350    12.4990 f          1 UXU      -0.169500
     24 H24          8.4820     0.2050    11.5650 h1         1 UXU       0.078700
     25 H25          8.5600     2.4670    11.8870 ho         1 UXU       0.463000
     26 H29          7.9530    -1.8870     9.8110 h1         1 UXU       0.104367
     27 H28          7.2470    -2.1500     8.1820 h1         1 UXU       0.104367
     28 H30          8.9070    -2.7340     8.5440 h1         1 UXU       0.104367
     29 H33         17.8670    -1.0170    10.5740 ha         1 UXU       0.156000
     30 H27         12.3620     0.0060    13.0180 hc         1 UXU       0.090200
     31 H26         12.1040     1.6540    12.4270 hc         1 UXU       0.090200
     32 H31         14.5700     0.4810     8.2730 ha         1 UXU       0.144500
     33 H32         13.8690    -1.5100    12.0430 ha         1 UXU       0.144500
@<TRIPOS>BOND
     1     1     2 1   
     2     1     3 1   
     3     1     4 1   
     4     1    24 1   
     5     2    13 1   
     6     2    14 1   
     7     2    15 1   
     8     3     5 2   
     9     3     6 1   
    10     4    25 1   
    11     5    16 1   
    12     5    17 1   
    13     6     7 2   
    14     6    13 1   
    15     7     9 1   
    16     7    16 1   
    17     8    17 1   
    18     8    26 1   
    19     8    27 1   
    20     8    28 1   
    21     9    20 ar  
    22     9    21 ar  
    23    10    12 ar  
    24    10    20 ar  
    25    10    22 1   
    26    11    12 ar  
    27    11    21 ar  
    28    11    23 1   
    29    12    29 1   
    30    13    30 1   
    31    13    31 1   
    32    17    18 2   
    33    17    19 2   
    34    20    32 1   
    35    21    33 1   
@<TRIPOS>SUBSTRUCTURE
     1 UXU         1 TEMP              0 ****  ****    0 ROOT
