@<TRIPOS>MOLECULE
UXU
   33    35     1     0     0
SMALL
No Charge or Current Charge


@<TRIPOS>ATOM
      1 C1           9.3890     0.6620    11.7140 c5         1 UXU       0.196600
      2 C2          10.1980     0.3120    13.0200 c5         1 UXU       0.128000
      3 C3          10.3170     0.2210    10.6080 cc         1 UXU       0.008700
      4 O4           9.0720     2.0590    11.6140 oh         1 UXU      -0.619000
      5 C8          10.1390    -0.0860     9.2860 cd         1 UXU      -0.394500
      6 C9          11.6310     0.0880    11.0670 cc         1 UXU      -0.115300
      7 C12         12.5430    -0.3270    10.1220 cd         1 UXU      -0.118000
      8 C15          8.4330    -1.7440     7.7990 c3         1 UXU      -0.344100
      9 C16         14.0130    -0.5060    10.2340 ca         1 UXU       0.025000
     10 C19         16.1260    -1.3040     9.2790 ca         1 UXU       0.198000
     11 C20         16.1280    -0.2410    11.4430 ca         1 UXU       0.198000
     12 C21         16.8280    -0.8650    10.4050 ca         1 UXU      -0.181000
     13 C5          11.6860     0.3850    12.5420 c5         1 UXU      -0.048100
     14 F6           9.9450     1.1930    14.0730 f          1 UXU      -0.111500
     15 F7           9.8880    -0.9750    13.4590 f          1 UXU      -0.111500
     16 S10         11.6910    -0.5230     8.5550 ss         1 UXU       0.365000
     17 S11          8.6540    -0.0470     8.3250 sy         1 UXU       1.128500
     18 O13          7.5180     0.2850     9.1930 o          1 UXU      -0.521000
     19 O14          8.9220     0.7190     7.1020 o          1 UXU      -0.521000
     20 C17         14.7360    -1.1270     9.1880 ca         1 UXU      -0.152500
     21 C18         14.7390    -0.0610    11.3620 ca         1 UXU      -0.152500
     22 F22         16.7910    -1.9070     8.2700 f          1 UXU      -0.169500
     23 F23         16.7980     0.1990    12.5300 f          1 UXU      -0.169500
     24 H24          8.4670     0.0640    11.6760 h1         1 UXU       0.078700
     25 H25          8.5140     2.2790    12.3920 ho         1 UXU       0.463000
     26 H29          8.3540    -2.3690     8.6950 h1         1 UXU       0.104367
     27 H28          7.5140    -1.7980     7.2070 h1         1 UXU       0.104367
     28 H30          9.2990    -2.0350     7.1960 h1         1 UXU       0.104367
     29 H33         17.9030    -1.0020    10.4710 ha         1 UXU       0.156000
     30 H27         12.3080    -0.3330    13.0880 hc         1 UXU       0.090200
     31 H26         12.1050     1.3830    12.7170 hc         1 UXU       0.090200
     32 H31         14.2350    -1.4950     8.2990 ha         1 UXU       0.144500
     33 H32         14.2500     0.4520    12.1790 ha         1 UXU       0.144500
@<TRIPOS>BOND
     1     1     2 1   
     2     1     3 1   
     3     1     4 1   
     4     1    24 1   
     5     2    13 1   
     6     2    14 1   
     7     2    15 1   
     8     3     5 2   
     9     3     6 1   
    10     4    25 1   
    11     5    16 1   
    12     5    17 1   
    13     6     7 2   
    14     6    13 1   
    15     7     9 1   
    16     7    16 1   
    17     8    17 1   
    18     8    26 1   
    19     8    27 1   
    20     8    28 1   
    21     9    20 ar  
    22     9    21 ar  
    23    10    12 ar  
    24    10    20 ar  
    25    10    22 1   
    26    11    12 ar  
    27    11    21 ar  
    28    11    23 1   
    29    12    29 1   
    30    13    30 1   
    31    13    31 1   
    32    17    18 2   
    33    17    19 2   
    34    20    32 1   
    35    21    33 1   
@<TRIPOS>SUBSTRUCTURE
     1 UXU         1 TEMP              0 ****  ****    0 ROOT
