@<TRIPOS>MOLECULE
UXW
   83    88     1     0     0
SMALL
No Charge or Current Charge


@<TRIPOS>ATOM
      1 C10         14.2890   -23.9200   -14.4240 ca         1 UXW      -0.149000
      2 C13         14.0130   -22.6520   -13.8740 ca         1 UXW       0.263000
      3 C15         13.0630   -21.5080   -11.7840 c6         1 UXW       0.206800
      4 C17         11.8080   -19.9080   -10.2380 c6         1 UXW      -0.105400
      5 C20         10.0590   -19.0280   -12.4290 c6         1 UXW       0.224800
      6 C22          9.5120   -17.0070   -11.0500 ca         1 UXW       0.423900
      7 C24          8.1690   -15.6180    -9.8160 ca         1 UXW       0.195900
      8 C26          8.8080   -14.8790   -11.8750 ca         1 UXW       0.405900
      9 C28          9.0900   -13.9790   -14.2500 c3         1 UXW       0.282100
     10 C02         21.2610   -24.4860   -15.8700 c6         1 UXW      -0.047000
     11 C03         21.2780   -25.7790   -16.7480 c3         1 UXW      -0.083100
     12 C04         20.1270   -24.5450   -14.8030 c6         1 UXW      -0.066900
     13 C05         18.7120   -24.4400   -15.4300 c6         1 UXW       0.169300
     14 C07         17.1850   -23.0280   -16.8040 c3         1 UXW       0.127500
     15 C08         16.0580   -22.9100   -15.7630 ca         1 UXW       0.309300
     16 C09         15.3190   -24.0460   -15.3740 ca         1 UXW      -0.121000
     17 C12         14.8060   -21.5630   -14.3400 ca         1 UXW       0.291900
     18 C16         11.6930   -20.7960   -11.5070 c6         1 UXW       0.132400
     19 C18         10.5450   -19.0480    -9.9820 c6         1 UXW       0.224800
     20 C19         11.3280   -19.8660   -12.7010 c6         1 UXW      -0.105400
     21 C29          8.2100   -15.0140   -14.9500 ca         1 UXW      -0.116300
     22 C30          6.8150   -14.8260   -15.0330 ca         1 UXW      -0.099500
     23 C31          6.0060   -15.7800   -15.6740 ca         1 UXW      -0.109000
     24 C32          6.5840   -16.9300   -16.2370 ca         1 UXW      -0.105000
     25 C33          7.9740   -17.1220   -16.1630 ca         1 UXW      -0.109000
     26 C34          8.7840   -16.1670   -15.5240 ca         1 UXW      -0.099500
     27 C35          9.5410   -16.0500   -12.0690 ca         1 UXW      -0.365000
     28 C37         11.8260   -23.4670   -12.7810 c6         1 UXW       0.117800
     29 C38         10.5860   -23.0370   -11.9280 c          1 UXW       0.563000
     30 C40         19.6000   -23.1430   -17.3260 c6         1 UXW       0.169300
     31 C41         21.0350   -23.2150   -16.7430 c6         1 UXW      -0.066900
     32 N06         18.5640   -23.2090   -16.2590 n3         1 UXW      -0.705600
     33 N11         15.8000   -21.6770   -15.2590 nb         1 UXW      -0.621000
     34 N14         12.9700   -22.4900   -12.9100 nh         1 UXW      -0.807400
     35 N21         10.2080   -18.2270   -11.1810 nh         1 UXW      -0.792300
     36 N23          8.8290   -16.7890    -9.9100 nb         1 UXW      -0.306000
     37 N25          8.1230   -14.6480   -10.7490 nb         1 UXW      -0.294000
     38 N27          8.7530   -13.8720   -12.8200 nu         1 UXW      -0.939100
     39 N36         10.6250   -21.8000   -11.3210 ns         1 UXW      -0.504900
     40 H1          13.7290   -24.7990   -14.1190 ha         1 UXW       0.120000
     41 H2          13.3780   -22.0380   -10.8720 h1         1 UXW       0.056700
     42 H3          13.8290   -20.7450   -11.9770 h1         1 UXW       0.056700
     43 H4          12.0050   -20.5330    -9.3560 hc         1 UXW       0.063950
     44 H5          12.6720   -19.2370   -10.3350 hc         1 UXW       0.063950
     45 H6           9.8780   -18.3830   -13.3010 h1         1 UXW       0.059450
     46 H7           9.1880   -19.6960   -12.3460 h1         1 UXW       0.059450
     47 H8           7.6160   -15.4400    -8.8950 h5         1 UXW       0.039100
     48 H9          10.1490   -14.2500   -14.3680 h1         1 UXW       0.055200
     49 H10          8.9500   -13.0050   -14.7410 h1         1 UXW       0.055200
     50 H11         22.8290   -25.2820   -14.5320 hc         1 UXW       0.032367
     51 H12         23.4660   -24.3480   -15.8940 hc         1 UXW       0.032367
     52 H13         22.7200   -23.5170   -14.5240 hc         1 UXW       0.032367
     53 H14         21.4450   -26.6740   -16.1360 hc         1 UXW       0.032367
     54 H15         20.3380   -25.9320   -17.2900 hc         1 UXW       0.032367
     55 H16         22.0790   -25.7420   -17.4970 hc         1 UXW       0.032367
     56 H17         20.2520   -23.7230   -14.0850 hc         1 UXW       0.046950
     57 H18         20.2010   -25.4730   -14.2200 hc         1 UXW       0.046950
     58 H19         17.9800   -24.4390   -14.6110 h1         1 UXW       0.028700
     59 H20         18.5100   -25.3360   -16.0360 h1         1 UXW       0.028700
     60 H21         17.1590   -22.1220   -17.4240 h1         1 UXW       0.040700
     61 H22         16.9440   -23.8640   -17.4750 h1         1 UXW       0.040700
     62 H23         15.5500   -25.0170   -15.8050 ha         1 UXW       0.120000
     63 H24         14.6280   -20.5530   -13.9760 h4         1 UXW       0.017100
     64 H25         10.7470   -18.4020    -9.1150 h1         1 UXW       0.059450
     65 H26          9.6980   -19.6970    -9.7140 h1         1 UXW       0.059450
     66 H27         11.1810   -20.4580   -13.6140 hc         1 UXW       0.063950
     67 H28         12.1640   -19.1850   -12.9100 hc         1 UXW       0.063950
     68 H29          6.3580   -13.9400   -14.5970 ha         1 UXW       0.113500
     69 H30          4.9300   -15.6290   -15.7310 ha         1 UXW       0.114500
     70 H31          5.9580   -17.6690   -16.7320 ha         1 UXW       0.114000
     71 H32          8.4240   -18.0110   -16.6010 ha         1 UXW       0.114500
     72 H33          9.8590   -16.3270   -15.4740 ha         1 UXW       0.113500
     73 H34         10.1190   -16.2110   -12.9690 ha         1 UXW       0.132000
     74 H35         11.4280   -23.7060   -13.7770 h1         1 UXW       0.069700
     75 H36         12.1850   -24.4030   -12.3300 h1         1 UXW       0.069700
     76 H37         19.4550   -23.9590   -18.0500 h1         1 UXW       0.028700
     77 H38         19.5010   -22.2020   -17.8870 h1         1 UXW       0.028700
     78 H39         21.7660   -23.1820   -17.5630 hc         1 UXW       0.046950
     79 H40         21.2120   -22.3150   -16.1390 hc         1 UXW       0.046950
     80 H42          8.1830   -13.0720   -12.5450 hn         1 UXW       0.508000
     81 H43          9.8180   -21.5580   -10.7620 hn         1 UXW       0.319500
     82 O39          9.6150   -23.7640   -11.7750 o          1 UXW      -0.566000
     83 C01         22.6480   -24.4040   -15.1650 c3         1 UXW      -0.083100
@<TRIPOS>BOND
     1     1     2 ar  
     2     1    16 ar  
     3     1    40 1   
     4     2    17 ar  
     5     2    34 1   
     6     3    18 1   
     7     3    34 1   
     8     3    41 1   
     9     3    42 1   
    10     4    18 1   
    11     4    19 1   
    12     4    43 1   
    13     4    44 1   
    14     5    20 1   
    15     5    35 1   
    16     5    45 1   
    17     5    46 1   
    18     6    27 ar  
    19     6    35 1   
    20     6    36 ar  
    21     7    36 ar  
    22     7    37 ar  
    23     7    47 1   
    24     8    27 ar  
    25     8    37 ar  
    26     8    38 1   
    27     9    21 1   
    28     9    38 1   
    29     9    48 1   
    30     9    49 1   
    31    10    11 1   
    32    10    12 1   
    33    10    31 1   
    34    10    83 1   
    35    11    53 1   
    36    11    54 1   
    37    11    55 1   
    38    12    13 1   
    39    12    56 1   
    40    12    57 1   
    41    13    32 1   
    42    13    58 1   
    43    13    59 1   
    44    14    15 1   
    45    14    32 1   
    46    14    60 1   
    47    14    61 1   
    48    15    16 ar  
    49    15    33 ar  
    50    16    62 1   
    51    17    33 ar  
    52    17    63 1   
    53    18    20 1   
    54    18    39 1   
    55    19    35 1   
    56    19    64 1   
    57    19    65 1   
    58    20    66 1   
    59    20    67 1   
    60    21    22 ar  
    61    21    26 ar  
    62    22    23 ar  
    63    22    68 1   
    64    23    24 ar  
    65    23    69 1   
    66    24    25 ar  
    67    24    70 1   
    68    25    26 ar  
    69    25    71 1   
    70    26    72 1   
    71    27    73 1   
    72    28    29 1   
    73    28    34 1   
    74    28    74 1   
    75    28    75 1   
    76    29    39 1   
    77    29    82 2   
    78    30    31 1   
    79    30    32 1   
    80    30    76 1   
    81    30    77 1   
    82    31    78 1   
    83    31    79 1   
    84    38    80 1   
    85    39    81 1   
    86    50    83 1   
    87    51    83 1   
    88    52    83 1   
@<TRIPOS>SUBSTRUCTURE
     1 UXW         1 TEMP              0 ****  ****    0 ROOT
