@<TRIPOS>MOLECULE
UXW
   83    88     1     0     0
SMALL
abcg2


@<TRIPOS>ATOM
      1 C10         14.0200   -24.1620   -14.5990 ca         1 UXW      -0.149000
      2 C13         13.8190   -22.9240   -13.9860 ca         1 UXW       0.263000
      3 C15         12.8910   -21.7890   -11.9990 c6         1 UXW       0.206800
      4 C17         11.6610   -20.2110   -10.5040 c6         1 UXW      -0.105400
      5 C20         10.1070   -19.1940   -12.7120 c6         1 UXW       0.224800
      6 C22         10.1160   -17.1070   -11.3780 ca         1 UXW       0.423900
      7 C24         10.0790   -15.2680   -10.0470 ca         1 UXW       0.195900
      8 C26          9.7530   -14.9110   -12.2440 ca         1 UXW       0.405900
      9 C28          9.3790   -14.3650   -14.6200 c3         1 UXW       0.282100
     10 C02         21.1500   -23.9580   -15.4730 c6         1 UXW      -0.047000
     11 C03         21.5190   -25.1840   -16.3110 c3         1 UXW      -0.083100
     12 C04         19.9670   -24.2650   -14.5480 c6         1 UXW      -0.066900
     13 C05         18.6510   -24.4360   -15.2920 c6         1 UXW       0.169300
     14 C07         17.0550   -23.3740   -16.7420 c3         1 UXW       0.127500
     15 C08         15.9150   -23.2610   -15.7670 ca         1 UXW       0.309300
     16 C09         15.0660   -24.3210   -15.4950 ca         1 UXW      -0.121000
     17 C12         14.7360   -21.9140   -14.3330 ca         1 UXW       0.291900
     18 C16         11.5910   -21.0270   -11.7960 c6         1 UXW       0.132400
     19 C18         10.4580   -19.2940   -10.3150 c6         1 UXW       0.224800
     20 C19         11.3220   -20.0730   -12.9660 c6         1 UXW      -0.105400
     21 C29          8.1140   -15.1310   -14.9420 ca         1 UXW      -0.116300
     22 C30          6.9260   -14.8830   -14.2610 ca         1 UXW      -0.099500
     23 C31          5.7680   -15.5760   -14.5870 ca         1 UXW      -0.109000
     24 C32          5.7820   -16.5250   -15.6010 ca         1 UXW      -0.105000
     25 C33          6.9630   -16.7770   -16.2860 ca         1 UXW      -0.109000
     26 C34          8.1200   -16.0860   -15.9540 ca         1 UXW      -0.099500
     27 C35          9.8760   -16.2780   -12.4820 ca         1 UXW      -0.365000
     28 C37         11.7840   -23.7140   -12.9270 c6         1 UXW       0.117800
     29 C38         10.5400   -23.2610   -12.1880 c          1 UXW       0.563000
     30 C40         19.4020   -23.0110   -17.0660 c6         1 UXW       0.169300
     31 C41         20.7390   -22.7880   -16.3750 c6         1 UXW      -0.066900
     32 N06         18.3500   -23.2660   -16.0980 n3         1 UXW      -0.705600
     33 N11         15.7340   -22.0790   -15.1770 nb         1 UXW      -0.621000
     34 N14         12.7600   -22.6760   -13.1330 nh         1 UXW      -0.807400
     35 N21         10.2610   -18.4500   -11.4790 nh         1 UXW      -0.792300
     36 N23         10.2150   -16.5750   -10.1450 nb         1 UXW      -0.306000
     37 N25          9.8540   -14.3930   -11.0040 nb         1 UXW      -0.294000
     38 N27          9.5350   -14.0210   -13.2330 nu         1 UXW      -0.939100
     39 N36         10.5240   -22.0170   -11.6870 ns         1 UXW      -0.504900
     40 H1          13.3810   -25.0080   -14.3870 ha         1 UXW       0.120000
     41 H2          13.1350   -22.3530   -11.0870 h1         1 UXW       0.056700
     42 H3          13.6950   -21.0750   -12.1540 h1         1 UXW       0.056700
     43 H4          11.7470   -20.8790    -9.6430 hc         1 UXW       0.063950
     44 H5          12.5680   -19.6010   -10.5340 hc         1 UXW       0.063950
     45 H6           9.9730   -18.5270   -13.5570 h1         1 UXW       0.059450
     46 H7           9.1970   -19.8050   -12.6570 h1         1 UXW       0.059450
     47 H8          10.1630   -14.8600    -9.0430 h5         1 UXW       0.039100
     48 H9          10.2450   -14.9340   -14.9730 h1         1 UXW       0.055200
     49 H10          9.3870   -13.4290   -15.1810 h1         1 UXW       0.055200
     50 H11         22.6690   -24.3750   -13.9760 hc         1 UXW       0.032367
     51 H12         23.2150   -23.3060   -15.2680 hc         1 UXW       0.032367
     52 H13         22.1430   -22.6910   -14.0080 hc         1 UXW       0.032367
     53 H14         21.8300   -26.0110   -15.6690 hc         1 UXW       0.032367
     54 H15         20.6940   -25.5420   -16.9260 hc         1 UXW       0.032367
     55 H16         22.3510   -24.9560   -16.9820 hc         1 UXW       0.032367
     56 H17         19.8500   -23.4430   -13.8330 hc         1 UXW       0.046950
     57 H18         20.1690   -25.1660   -13.9600 hc         1 UXW       0.046950
     58 H19         17.8510   -24.5810   -14.5620 h1         1 UXW       0.028700
     59 H20         18.6710   -25.3520   -15.9090 h1         1 UXW       0.028700
     60 H21         16.9700   -22.5580   -17.4650 h1         1 UXW       0.040700
     61 H22         16.9570   -24.3120   -17.3160 h1         1 UXW       0.040700
     62 H23         15.2230   -25.2800   -15.9730 ha         1 UXW       0.120000
     63 H24         14.6350   -20.9170   -13.9170 h4         1 UXW       0.017100
     64 H25         10.6080   -18.6690    -9.4410 h1         1 UXW       0.059450
     65 H26          9.5460   -19.8750   -10.1290 h1         1 UXW       0.059450
     66 H27         11.1770   -20.6410   -13.8870 hc         1 UXW       0.063950
     67 H28         12.1960   -19.4300   -13.1100 hc         1 UXW       0.063950
     68 H29          6.9040   -14.1510   -13.4630 ha         1 UXW       0.113500
     69 H30          4.8520   -15.3750   -14.0460 ha         1 UXW       0.114500
     70 H31          4.8790   -17.0670   -15.8530 ha         1 UXW       0.114000
     71 H32          6.9870   -17.5200   -17.0740 ha         1 UXW       0.114500
     72 H33          9.0430   -16.2980   -16.4840 ha         1 UXW       0.113500
     73 H34          9.7800   -16.6630   -13.4840 ha         1 UXW       0.132000
     74 H35         11.4410   -24.1000   -13.8890 h1         1 UXW       0.069700
     75 H36         12.1880   -24.5720   -12.3670 h1         1 UXW       0.069700
     76 H37         19.4870   -23.8290   -17.8020 h1         1 UXW       0.028700
     77 H38         19.1380   -22.1150   -17.6340 h1         1 UXW       0.028700
     78 H39         21.5110   -22.6080   -17.1300 hc         1 UXW       0.046950
     79 H40         20.6710   -21.8780   -15.7710 hc         1 UXW       0.046950
     80 H42          9.4350   -13.0590   -12.9560 hn         1 UXW       0.508000
     81 H43          9.6670   -21.7550   -11.2200 hn         1 UXW       0.319500
     82 O39          9.6070   -24.0390   -12.0600 o          1 UXW      -0.566000
     83 C01         22.3620   -23.5590   -14.6340 c3         1 UXW      -0.083100
@<TRIPOS>BOND
     1     1     2 ar  
     2     1    16 ar  
     3     1    40 1   
     4     2    17 ar  
     5     2    34 1   
     6     3    18 1   
     7     3    34 1   
     8     3    41 1   
     9     3    42 1   
    10     4    18 1   
    11     4    19 1   
    12     4    43 1   
    13     4    44 1   
    14     5    20 1   
    15     5    35 1   
    16     5    45 1   
    17     5    46 1   
    18     6    27 ar  
    19     6    35 1   
    20     6    36 ar  
    21     7    36 ar  
    22     7    37 ar  
    23     7    47 1   
    24     8    27 ar  
    25     8    37 ar  
    26     8    38 1   
    27     9    21 1   
    28     9    38 1   
    29     9    48 1   
    30     9    49 1   
    31    10    11 1   
    32    10    12 1   
    33    10    31 1   
    34    10    83 1   
    35    11    53 1   
    36    11    54 1   
    37    11    55 1   
    38    12    13 1   
    39    12    56 1   
    40    12    57 1   
    41    13    32 1   
    42    13    58 1   
    43    13    59 1   
    44    14    15 1   
    45    14    32 1   
    46    14    60 1   
    47    14    61 1   
    48    15    16 ar  
    49    15    33 ar  
    50    16    62 1   
    51    17    33 ar  
    52    17    63 1   
    53    18    20 1   
    54    18    39 1   
    55    19    35 1   
    56    19    64 1   
    57    19    65 1   
    58    20    66 1   
    59    20    67 1   
    60    21    22 ar  
    61    21    26 ar  
    62    22    23 ar  
    63    22    68 1   
    64    23    24 ar  
    65    23    69 1   
    66    24    25 ar  
    67    24    70 1   
    68    25    26 ar  
    69    25    71 1   
    70    26    72 1   
    71    27    73 1   
    72    28    29 1   
    73    28    34 1   
    74    28    74 1   
    75    28    75 1   
    76    29    39 1   
    77    29    82 2   
    78    30    31 1   
    79    30    32 1   
    80    30    76 1   
    81    30    77 1   
    82    31    78 1   
    83    31    79 1   
    84    38    80 1   
    85    39    81 1   
    86    50    83 1   
    87    51    83 1   
    88    52    83 1   
@<TRIPOS>SUBSTRUCTURE
     1 UXW         1 TEMP              0 ****  ****    0 ROOT
