@<TRIPOS>MOLECULE
UXY
   24    23     1     0     0
SMALL
bcc


@<TRIPOS>ATOM
      1 N          231.8560   297.8080   191.1240 n8         1 UXY      -0.912800
      2 CA         231.4260   297.9490   189.7350 c3         1 UXY       0.007500
      3 C          230.0930   298.7040   189.5120 c          1 UXY       0.907600
      4 O          229.8120   298.9520   188.3210 o          1 UXY      -0.837800
      5 C03        231.3610   296.5700   189.0590 c3         1 UXY      -0.088400
      6 C04        232.4780   295.6060   189.4960 c3         1 UXY       0.158100
      7 C06        232.7280   294.5020   188.4750 c3         1 UXY      -0.069400
      8 C07        233.3250   294.9540   187.1470 c3         1 UXY       0.145800
      9 N08        233.4940   293.8060   186.2620 n8         1 UXY      -0.892800
     10 O05        233.6920   296.2720   189.7660 oh         1 UXY      -0.640800
     11 OXT        229.4140   298.9870   190.5180 o          1 UXY      -0.837800
     12 H1         231.9190   298.7250   191.5490 hn         1 UXY       0.335800
     13 H2         231.1360   297.3250   191.6500 hn         1 UXY       0.335800
     14 H4         232.2080   298.5250   189.2280 h1         1 UXY       0.044700
     15 H5         231.3680   296.7280   187.9800 hc         1 UXY       0.045700
     16 H6         230.4050   296.0870   189.2900 hc         1 UXY       0.045700
     17 H7         232.1260   295.1070   190.4120 h1         1 UXY       0.009700
     18 H8         231.7800   293.9910   188.2810 hc         1 UXY       0.034200
     19 H9         233.3930   293.7540   188.9230 hc         1 UXY       0.034200
     20 H10        234.2580   295.4990   187.3310 h1         1 UXY       0.042200
     21 H11        232.6490   295.6570   186.6550 h1         1 UXY       0.042200
     22 H12        233.8720   294.1190   185.3770 hn         1 UXY       0.321800
     23 H13        234.1990   293.1900   186.6520 hn         1 UXY       0.321800
     24 H15        233.4400   296.9070   190.4650 ho         1 UXY       0.445000
@<TRIPOS>BOND
     1     1     2 1   
     2     1    12 1   
     3     1    13 1   
     4     2     3 1   
     5     2     5 1   
     6     2    14 1   
     7     3     4 1   
     8     3    11 1   
     9     5     6 1   
    10     5    15 1   
    11     5    16 1   
    12     6     7 1   
    13     6    10 1   
    14     6    17 1   
    15     7     8 1   
    16     7    18 1   
    17     7    19 1   
    18     8     9 1   
    19     8    20 1   
    20     8    21 1   
    21     9    22 1   
    22     9    23 1   
    23    10    24 1   
@<TRIPOS>SUBSTRUCTURE
     1 UXY         1 TEMP              0 ****  ****    0 ROOT
