@<TRIPOS>MOLECULE
UXY
   24    23     1     0     0
SMALL
No Charge or Current Charge


@<TRIPOS>ATOM
      1 N          231.8410   297.8690   191.2300 n8         1 UXY      -0.912800
      2 CA         231.3970   297.9670   189.7850 c3         1 UXY       0.007500
      3 C          230.0480   298.7590   189.4880 c          1 UXY       0.907600
      4 O          230.0690   299.6640   188.6620 o          1 UXY      -0.837800
      5 C03        231.3640   296.5610   189.1070 c3         1 UXY      -0.088400
      6 C04        232.5220   295.5930   189.4820 c3         1 UXY       0.158100
      7 C06        232.7630   294.4350   188.4780 c3         1 UXY      -0.069400
      8 C07        233.2910   294.8650   187.0890 c3         1 UXY       0.145800
      9 N08        233.5100   293.6980   186.2090 n8         1 UXY      -0.892800
     10 O05        233.7140   296.3440   189.6910 oh         1 UXY      -0.640800
     11 OXT        229.0620   298.5270   190.1820 o          1 UXY      -0.837800
     12 H1         231.9000   298.8140   191.6280 hn         1 UXY       0.335800
     13 H2         231.0860   297.4320   191.7720 hn         1 UXY       0.335800
     14 H4         232.1850   298.5400   189.2780 h1         1 UXY       0.044700
     15 H5         231.3500   296.7230   188.0240 hc         1 UXY       0.045700
     16 H6         230.4160   296.0660   189.3490 hc         1 UXY       0.045700
     17 H7         232.2440   295.1280   190.4380 h1         1 UXY       0.009700
     18 H8         231.8240   293.8830   188.3510 hc         1 UXY       0.034200
     19 H9         233.4780   293.7340   188.9260 hc         1 UXY       0.034200
     20 H10        234.2440   295.4010   187.2020 h1         1 UXY       0.042200
     21 H11        232.5730   295.5360   186.5990 h1         1 UXY       0.042200
     22 H12        233.9170   294.0170   185.3240 hn         1 UXY       0.321800
     23 H13        234.2320   293.1000   186.6230 hn         1 UXY       0.321800
     24 H15        233.4030   297.0680   190.2910 ho         1 UXY       0.445000
@<TRIPOS>BOND
     1     1     2 1   
     2     1    12 1   
     3     1    13 1   
     4     2     3 1   
     5     2     5 1   
     6     2    14 1   
     7     3     4 1   
     8     3    11 1   
     9     5     6 1   
    10     5    15 1   
    11     5    16 1   
    12     6     7 1   
    13     6    10 1   
    14     6    17 1   
    15     7     8 1   
    16     7    18 1   
    17     7    19 1   
    18     8     9 1   
    19     8    20 1   
    20     8    21 1   
    21     9    22 1   
    22     9    23 1   
    23    10    24 1   
@<TRIPOS>SUBSTRUCTURE
     1 UXY         1 TEMP              0 ****  ****    0 ROOT
