@<TRIPOS>MOLECULE
UXZ
   74    78     1     0     0
SMALL
bcc


@<TRIPOS>ATOM
      1 C10        -45.2630    31.3030    22.6730 ca         1 UXZ      -0.189500
      2 C13        -44.2670    32.0300    23.3340 ca         1 UXZ       0.166600
      3 C15        -43.8110    33.3650    25.3460 c6         1 UXZ       0.198800
      4 C17        -42.9740    35.6180    24.5960 c6         1 UXZ      -0.096900
      5 C20        -42.9090    36.5550    27.3290 c6         1 UXZ       0.216800
      6 C22        -41.4730    38.3630    26.5560 ca         1 UXZ       0.735200
      7 C24        -40.2690    39.5080    28.0990 ca         1 UXZ       0.720900
      8 C26        -40.3520    40.4060    26.0350 ca         1 UXZ       0.733200
      9 C28        -40.4280    41.5270    23.8470 c3         1 UXZ       0.221100
     10 C02        -42.8220    24.7000    22.5970 c6         1 UXZ      -0.048000
     11 C03        -42.1600    23.7290    23.5720 c3         1 UXZ      -0.083100
     12 C04        -43.4540    25.8610    23.3720 c6         1 UXZ      -0.066900
     13 C05        -43.9320    26.9900    22.4720 c6         1 UXZ       0.167800
     14 C07        -43.2780    28.6230    20.8280 c3         1 UXZ       0.220100
     15 C08        -43.6250    29.8240    21.6630 ca         1 UXZ      -0.117300
     16 C09        -44.9370    30.2320    21.8510 ca         1 UXZ      -0.080500
     17 C11        -42.6320    30.5540    22.3160 ca         1 UXZ      -0.080500
     18 C12        -42.9360    31.6370    23.1190 ca         1 UXZ      -0.189500
     19 C16        -43.7750    34.8530    25.6510 c6         1 UXZ       0.133400
     20 C18        -42.8020    37.0900    24.9410 c6         1 UXZ       0.216800
     21 C19        -43.1030    35.0830    27.0030 c6         1 UXZ      -0.096900
     22 C29        -41.1630    39.3480    25.6140 ca         1 UXZ      -0.517600
     23 C31        -45.9570    33.4890    24.2830 c6         1 UXZ       0.111800
     24 C32        -46.1970    34.7650    25.0650 c          1 UXZ       0.706500
     25 C34        -42.2920    26.4380    20.8110 c6         1 UXZ       0.167800
     26 C35        -41.7610    25.2920    21.6610 c6         1 UXZ      -0.066900
     27 N06        -42.8550    27.4920    21.6380 n3         1 UXZ      -0.717600
     28 N14        -44.5700    33.1240    24.1390 nh         1 UXZ      -0.659000
     29 N21        -42.2210    37.2620    26.2590 nh         1 UXZ      -0.776300
     30 N23        -41.0220    38.4630    27.8200 nb         1 UXZ      -0.821000
     31 N25        -39.8920    40.4830    27.2990 nb         1 UXZ      -0.817000
     32 N27        -39.9930    41.4050    25.2120 nu         1 UXZ      -0.880900
     33 N30        -45.1540    35.3240    25.6950 ns         1 UXZ      -0.570900
     34 H1         -46.3090    31.5490    22.7970 ha         1 UXZ       0.131500
     35 H2         -44.2480    32.8250    26.2010 h1         1 UXZ       0.054700
     36 H3         -42.7890    33.0120    25.2380 h1         1 UXZ       0.054700
     37 H4         -43.4570    35.5400    23.6210 hc         1 UXZ       0.064200
     38 H5         -41.9840    35.1600    24.5060 hc         1 UXZ       0.064200
     39 H6         -42.3310    36.6440    28.2420 h1         1 UXZ       0.053450
     40 H7         -43.8770    37.0350    27.5310 h1         1 UXZ       0.053450
     41 H8         -39.9110    39.5720    29.1240 h5         1 UXZ       0.040100
     42 H9         -40.0040    42.4350    23.4280 h1         1 UXZ       0.037700
     43 H10        -40.0930    40.6870    23.2350 h1         1 UXZ       0.037700
     44 H11        -41.5170    41.5930    23.7640 h1         1 UXZ       0.037700
     45 H12        -44.6460    23.5280    22.4660 hc         1 UXZ       0.032533
     46 H13        -44.3950    24.5710    21.0710 hc         1 UXZ       0.032533
     47 H14        -43.4370    23.1080    21.2530 hc         1 UXZ       0.032533
     48 H15        -41.3900    24.2260    24.1660 hc         1 UXZ       0.032533
     49 H16        -42.8920    23.3050    24.2650 hc         1 UXZ       0.032533
     50 H17        -41.6880    22.8990    23.0410 hc         1 UXZ       0.032533
     51 H18        -42.7180    26.2670    24.0740 hc         1 UXZ       0.045700
     52 H19        -44.2950    25.5000    23.9710 hc         1 UXZ       0.045700
     53 H20        -44.3040    27.8050    23.0960 h1         1 UXZ       0.030200
     54 H21        -44.7910    26.6570    21.8620 h1         1 UXZ       0.030200
     55 H22        -44.1380    28.3650    20.1850 h1         1 UXZ       0.035200
     56 H23        -42.4530    28.8720    20.1540 h1         1 UXZ       0.035200
     57 H24        -45.7390    29.6900    21.3620 ha         1 UXZ       0.132000
     58 H25        -41.5920    30.2790    22.1850 ha         1 UXZ       0.132000
     59 H26        -42.1190    32.1880    23.5680 ha         1 UXZ       0.131500
     60 H27        -42.1430    37.5220    24.1920 h1         1 UXZ       0.053450
     61 H28        -43.7600    37.6240    24.8640 h1         1 UXZ       0.053450
     62 H29        -43.6850    34.6170    27.8010 hc         1 UXZ       0.064200
     63 H30        -42.1280    34.5890    26.9820 hc         1 UXZ       0.064200
     64 H31        -41.5450    39.3250    24.6060 ha         1 UXZ       0.145000
     65 H32        -46.4060    33.6470    23.3000 h1         1 UXZ       0.070200
     66 H33        -46.5510    32.7060    24.7790 h1         1 UXZ       0.070200
     67 H34        -43.0270    26.0580    20.0810 h1         1 UXZ       0.030200
     68 H35        -41.4710    26.8600    20.2260 h1         1 UXZ       0.030200
     69 H36        -41.3580    24.5140    21.0070 hc         1 UXZ       0.045700
     70 H37        -40.9230    25.6630    22.2610 hc         1 UXZ       0.045700
     71 H39        -39.4530    42.1500    25.6180 hn         1 UXZ       0.452800
     72 H40        -45.3580    36.1870    26.1810 hn         1 UXZ       0.318500
     73 O33        -47.3280    35.2260    25.1170 o          1 UXZ      -0.643500
     74 C01        -43.8850    23.9410    21.7990 c3         1 UXZ      -0.083100
@<TRIPOS>BOND
     1     1     2 ar  
     2     1    16 ar  
     3     1    34 1   
     4     2    18 ar  
     5     2    28 1   
     6     3    19 1   
     7     3    28 1   
     8     3    35 1   
     9     3    36 1   
    10     4    19 1   
    11     4    20 1   
    12     4    37 1   
    13     4    38 1   
    14     5    21 1   
    15     5    29 1   
    16     5    39 1   
    17     5    40 1   
    18     6    22 ar  
    19     6    29 1   
    20     6    30 ar  
    21     7    30 ar  
    22     7    31 ar  
    23     7    41 1   
    24     8    22 ar  
    25     8    31 ar  
    26     8    32 1   
    27     9    32 1   
    28     9    42 1   
    29     9    43 1   
    30     9    44 1   
    31    10    11 1   
    32    10    12 1   
    33    10    26 1   
    34    10    74 1   
    35    11    48 1   
    36    11    49 1   
    37    11    50 1   
    38    12    13 1   
    39    12    51 1   
    40    12    52 1   
    41    13    27 1   
    42    13    53 1   
    43    13    54 1   
    44    14    15 1   
    45    14    27 1   
    46    14    55 1   
    47    14    56 1   
    48    15    16 ar  
    49    15    17 ar  
    50    16    57 1   
    51    17    18 ar  
    52    17    58 1   
    53    18    59 1   
    54    19    21 1   
    55    19    33 1   
    56    20    29 1   
    57    20    60 1   
    58    20    61 1   
    59    21    62 1   
    60    21    63 1   
    61    22    64 1   
    62    23    24 1   
    63    23    28 1   
    64    23    65 1   
    65    23    66 1   
    66    24    33 1   
    67    24    73 2   
    68    25    26 1   
    69    25    27 1   
    70    25    67 1   
    71    25    68 1   
    72    26    69 1   
    73    26    70 1   
    74    32    71 1   
    75    33    72 1   
    76    45    74 1   
    77    46    74 1   
    78    47    74 1   
@<TRIPOS>SUBSTRUCTURE
     1 UXZ         1 TEMP              0 ****  ****    0 ROOT
