@<TRIPOS>MOLECULE
UXZ
   74    78     1     0     0
SMALL
No Charge or Current Charge


@<TRIPOS>ATOM
      1 C10        -45.6350    31.1920    22.7250 ca         1 UXZ      -0.171500
      2 C13        -44.6190    31.9970    23.2760 ca         1 UXZ       0.305000
      3 C15        -44.2380    33.3960    25.3660 c6         1 UXZ       0.198800
      4 C17        -42.9950    35.4960    24.6050 c6         1 UXZ      -0.096900
      5 C20        -43.1020    36.6410    27.3140 c6         1 UXZ       0.216800
      6 C22        -41.2490    38.1970    26.5990 ca         1 UXZ       0.406900
      7 C24        -39.7110    39.0480    28.0740 ca         1 UXZ       0.194900
      8 C26        -40.0880    40.2440    26.1720 ca         1 UXZ       0.404900
      9 C28        -40.3490    41.7490    24.1150 c3         1 UXZ       0.221100
     10 C02        -42.4600    24.6850    22.6370 c6         1 UXZ      -0.048000
     11 C03        -41.5450    23.7650    23.4990 c3         1 UXZ      -0.083100
     12 C04        -43.0160    25.8480    23.5120 c6         1 UXZ      -0.066900
     13 C05        -43.7830    26.9070    22.6780 c6         1 UXZ       0.167800
     14 C07        -43.6150    28.5380    20.8190 c3         1 UXZ       0.220100
     15 C08        -43.9700    29.7490    21.6760 ca         1 UXZ      -0.117300
     16 C09        -45.3150    30.0750    21.9340 ca         1 UXZ      -0.062500
     17 C11        -42.9520    30.5550    22.2180 ca         1 UXZ      -0.062500
     18 C12        -43.2770    31.6700    23.0100 ca         1 UXZ      -0.171500
     19 C16        -44.0330    34.9310    25.6150 c6         1 UXZ       0.133400
     20 C18        -42.6410    36.9770    24.8770 c6         1 UXZ       0.216800
     21 C19        -43.4650    35.1610    27.0420 c6         1 UXZ      -0.096900
     22 C29        -41.0220    39.2940    25.7550 ca         1 UXZ      -0.369000
     23 C31        -46.2240    33.8890    23.9090 c6         1 UXZ       0.111800
     24 C32        -46.3340    35.2830    24.6090 c          1 UXZ       0.564000
     25 C34        -42.4370    26.3800    20.6850 c6         1 UXZ       0.167800
     26 C35        -41.6360    25.3090    21.4720 c6         1 UXZ      -0.066900
     27 N06        -42.9410    27.4590    21.5780 n3         1 UXZ      -0.717600
     28 N14        -44.9330    33.1260    24.0710 nh         1 UXZ      -0.797400
     29 N21        -42.1680    37.1730    26.2770 nh         1 UXZ      -0.776300
     30 N23        -40.5910    38.0760    27.7670 nb         1 UXZ      -0.295000
     31 N25        -39.4250    40.1330    27.3290 nb         1 UXZ      -0.291000
     32 N27        -39.7870    41.3660    25.4220 nu         1 UXZ      -0.936100
     33 N30        -45.3140    35.6530    25.4600 ns         1 UXZ      -0.503900
     34 H1         -46.6790    31.4170    22.9170 ha         1 UXZ       0.113500
     35 H2         -44.8380    32.9800    26.1890 h1         1 UXZ       0.054700
     36 H3         -43.2620    32.8920    25.4080 h1         1 UXZ       0.054700
     37 H4         -43.3710    35.4000    23.5770 hc         1 UXZ       0.064200
     38 H5         -42.0740    34.9000    24.6480 hc         1 UXZ       0.064200
     39 H6         -42.6590    36.7000    28.3190 h1         1 UXZ       0.053450
     40 H7         -44.0180    37.2480    27.3370 h1         1 UXZ       0.053450
     41 H8         -39.1790    38.9480    29.0180 h5         1 UXZ       0.040100
     42 H9         -39.9110    42.6960    23.7700 h1         1 UXZ       0.037700
     43 H10        -40.1380    40.9760    23.3640 h1         1 UXZ       0.037700
     44 H11        -41.4380    41.8780    24.1870 h1         1 UXZ       0.037700
     45 H12        -44.1930    23.3390    22.9130 hc         1 UXZ       0.032533
     46 H13        -44.3240    24.3430    21.4690 hc         1 UXZ       0.032533
     47 H14        -43.2270    22.9620    21.4810 hc         1 UXZ       0.032533
     48 H15        -40.7010    24.3230    23.9230 hc         1 UXZ       0.032533
     49 H16        -42.0970    23.3210    24.3370 hc         1 UXZ       0.032533
     50 H17        -41.1280    22.9420    22.9050 hc         1 UXZ       0.032533
     51 H18        -42.1880    26.3480    24.0330 hc         1 UXZ       0.045700
     52 H19        -43.6750    25.4530    24.2970 hc         1 UXZ       0.045700
     53 H20        -44.1000    27.7100    23.3580 h1         1 UXZ       0.030200
     54 H21        -44.7010    26.4600    22.2680 h1         1 UXZ       0.030200
     55 H22        -44.5270    28.1490    20.3450 h1         1 UXZ       0.035200
     56 H23        -42.9600    28.8830    20.0080 h1         1 UXZ       0.035200
     57 H24        -46.1140    29.4600    21.5230 ha         1 UXZ       0.114000
     58 H25        -41.9090    30.3150    22.0240 ha         1 UXZ       0.114000
     59 H26        -42.4770    32.2890    23.4040 ha         1 UXZ       0.113500
     60 H27        -41.8570    37.2680    24.1630 h1         1 UXZ       0.053450
     61 H28        -43.5170    37.6120    24.6800 h1         1 UXZ       0.053450
     62 H29        -44.1890    34.8210    27.7950 hc         1 UXZ       0.064200
     63 H30        -42.5650    34.5480    27.1840 hc         1 UXZ       0.064200
     64 H31        -41.5570    39.4130    24.8210 ha         1 UXZ       0.127000
     65 H32        -46.4160    34.0740    22.8420 h1         1 UXZ       0.070200
     66 H33        -47.0600    33.2940    24.3030 h1         1 UXZ       0.070200
     67 H34        -43.2730    25.8990    20.1570 h1         1 UXZ       0.030200
     68 H35        -41.7790    26.8070    19.9140 h1         1 UXZ       0.030200
     69 H36        -41.2980    24.5250    20.7810 hc         1 UXZ       0.045700
     70 H37        -40.7260    25.7780    21.8710 hc         1 UXZ       0.045700
     71 H39        -39.0880    41.9870    25.8350 hn         1 UXZ       0.508000
     72 H40        -45.4260    36.5490    25.9160 hn         1 UXZ       0.318500
     73 O33        -47.2950    36.0220    24.4460 o          1 UXZ      -0.568000
     74 C01        -43.6170    23.7850    22.0930 c3         1 UXZ      -0.083100
@<TRIPOS>BOND
     1     1     2 ar  
     2     1    16 ar  
     3     1    34 1   
     4     2    18 ar  
     5     2    28 1   
     6     3    19 1   
     7     3    28 1   
     8     3    35 1   
     9     3    36 1   
    10     4    19 1   
    11     4    20 1   
    12     4    37 1   
    13     4    38 1   
    14     5    21 1   
    15     5    29 1   
    16     5    39 1   
    17     5    40 1   
    18     6    22 ar  
    19     6    29 1   
    20     6    30 ar  
    21     7    30 ar  
    22     7    31 ar  
    23     7    41 1   
    24     8    22 ar  
    25     8    31 ar  
    26     8    32 1   
    27     9    32 1   
    28     9    42 1   
    29     9    43 1   
    30     9    44 1   
    31    10    11 1   
    32    10    12 1   
    33    10    26 1   
    34    10    74 1   
    35    11    48 1   
    36    11    49 1   
    37    11    50 1   
    38    12    13 1   
    39    12    51 1   
    40    12    52 1   
    41    13    27 1   
    42    13    53 1   
    43    13    54 1   
    44    14    15 1   
    45    14    27 1   
    46    14    55 1   
    47    14    56 1   
    48    15    16 ar  
    49    15    17 ar  
    50    16    57 1   
    51    17    18 ar  
    52    17    58 1   
    53    18    59 1   
    54    19    21 1   
    55    19    33 1   
    56    20    29 1   
    57    20    60 1   
    58    20    61 1   
    59    21    62 1   
    60    21    63 1   
    61    22    64 1   
    62    23    24 1   
    63    23    28 1   
    64    23    65 1   
    65    23    66 1   
    66    24    33 1   
    67    24    73 2   
    68    25    26 1   
    69    25    27 1   
    70    25    67 1   
    71    25    68 1   
    72    26    69 1   
    73    26    70 1   
    74    32    71 1   
    75    33    72 1   
    76    45    74 1   
    77    46    74 1   
    78    47    74 1   
@<TRIPOS>SUBSTRUCTURE
     1 UXZ         1 TEMP              0 ****  ****    0 ROOT
