@<TRIPOS>MOLECULE
UY2
   71    75     1     0     0
SMALL
abcg2


@<TRIPOS>ATOM
      1 C10         16.1760   -22.8220   -15.0850 ca         1 UY2      -0.110300
      2 C13         13.8930   -22.1950   -13.5440 ca         1 UY2      -0.003000
      3 C15         11.7220   -22.6370   -12.4300 c          1 UY2       0.603000
      4 C20         10.4160   -19.7170   -12.5660 c6         1 UY2      -0.097400
      5 C21         10.7070   -18.2220   -12.5470 c6         1 UY2       0.219800
      6 C24          9.8670   -15.5240   -11.9940 ca         1 UY2      -0.371000
      7 C02         21.3230   -23.6630   -14.2630 c6         1 UY2      -0.048000
      8 C03         21.0490   -22.6630   -15.3930 c6         1 UY2      -0.066900
      9 C04         19.7600   -22.9520   -16.1460 c6         1 UY2       0.169800
     10 C05         22.4790   -23.1590   -13.4020 c3         1 UY2      -0.083100
     11 C06         20.0550   -23.7640   -13.4060 c6         1 UY2      -0.066900
     12 C07         18.8000   -24.0170   -14.2250 c6         1 UY2       0.169800
     13 C09         17.3750   -23.1300   -15.9450 c3         1 UY2       0.221100
     14 C11         16.2110   -21.8150   -14.1270 ca         1 UY2      -0.075500
     15 C12         15.0970   -21.5080   -13.3640 ca         1 UY2      -0.150000
     16 C18         12.7450   -20.5910   -12.0280 c5         1 UY2       0.093000
     17 C19         11.2790   -20.5050   -11.5800 c5         1 UY2       0.098400
     18 C23         10.3200   -16.3770   -10.9830 ca         1 UY2       0.409900
     19 C25          9.5160   -14.2220   -11.6270 ca         1 UY2       0.404900
     20 C27          8.8890   -13.5860   -13.9200 c3         1 UY2       0.222100
     21 C29         10.0780   -14.6800    -9.4960 ca         1 UY2       0.195900
     22 C31         11.4600   -18.3980   -10.2260 c6         1 UY2       0.219800
     23 C32         11.1200   -19.8780   -10.2030 c6         1 UY2      -0.097400
     24 C33         13.8450   -23.2000   -14.5130 ca         1 UY2      -0.150000
     25 C34         14.9770   -23.5050   -15.2540 ca         1 UY2      -0.075500
     26 N08         18.6280   -22.9900   -15.2380 n3         1 UY2      -0.725600
     27 N14         12.7790   -21.8260   -12.7880 n          1 UY2      -0.239400
     28 N16         10.9350   -21.9150   -11.5830 ns         1 UY2      -0.491900
     29 N22         10.6530   -17.6800   -11.2030 nh         1 UY2      -0.776300
     30 N26          9.0630   -13.3240   -12.5170 nu         1 UY2      -0.937100
     31 N28          9.6230   -13.7920   -10.3540 nb         1 UY2      -0.291000
     32 N30         10.4330   -15.9300    -9.7190 nb         1 UY2      -0.297000
     33 H1           9.3650   -19.8780   -12.3100 hc         1 UY2       0.062950
     34 H2          10.5610   -20.0880   -13.5840 hc         1 UY2       0.062950
     35 H3          11.6820   -18.0110   -13.0050 h1         1 UY2       0.054200
     36 H4           9.9590   -17.7420   -13.1730 h1         1 UY2       0.054200
     37 H5           9.7940   -15.8310   -13.0250 ha         1 UY2       0.126000
     38 H6          21.8870   -25.7470   -14.0270 hc         1 UY2       0.032533
     39 H7          20.9250   -25.4580   -15.4700 hc         1 UY2       0.032533
     40 H8          22.6130   -24.9640   -15.4300 hc         1 UY2       0.032533
     41 H9          21.8870   -22.6520   -16.0960 hc         1 UY2       0.045200
     42 H10         20.9810   -21.6560   -14.9680 hc         1 UY2       0.045200
     43 H11         19.8520   -23.8900   -16.7210 h1         1 UY2       0.031950
     44 H12         19.5880   -22.1600   -16.8800 h1         1 UY2       0.031950
     45 H13         22.6830   -23.8450   -12.5770 hc         1 UY2       0.032533
     46 H14         23.3960   -23.0650   -13.9890 hc         1 UY2       0.032533
     47 H15         22.2540   -22.1800   -12.9730 hc         1 UY2       0.032533
     48 H16         19.9240   -22.8290   -12.8520 hc         1 UY2       0.045200
     49 H17         20.1710   -24.5570   -12.6610 hc         1 UY2       0.045200
     50 H18         17.9320   -24.0080   -13.5630 h1         1 UY2       0.031950
     51 H19         18.8310   -25.0230   -14.6800 h1         1 UY2       0.031950
     52 H20         17.2550   -24.1340   -16.3890 h1         1 UY2       0.035200
     53 H21         17.3890   -22.4320   -16.7900 h1         1 UY2       0.035200
     54 H22         17.1310   -21.2700   -13.9590 ha         1 UY2       0.120000
     55 H23         15.1810   -20.7250   -12.6220 ha         1 UY2       0.125000
     56 H24         13.4140   -20.6390   -11.1610 h1         1 UY2       0.058700
     57 H25         13.0540   -19.7450   -12.6420 h1         1 UY2       0.058700
     58 H26          8.5190   -12.6830   -14.3970 h1         1 UY2       0.037700
     59 H27          9.8280   -13.8620   -14.4070 h1         1 UY2       0.037700
     60 H28          8.1660   -14.3840   -14.1020 h1         1 UY2       0.037700
     61 H29         10.1750   -14.3390    -8.4680 h5         1 UY2       0.041100
     62 H30         12.5270   -18.2610   -10.4510 h1         1 UY2       0.054200
     63 H31         11.2890   -17.9680    -9.2450 h1         1 UY2       0.054200
     64 H32         10.0880   -20.0100    -9.8660 hc         1 UY2       0.062950
     65 H33         11.7660   -20.3830    -9.4820 hc         1 UY2       0.062950
     66 H34         12.9340   -23.7440   -14.7000 ha         1 UY2       0.125000
     67 H35         14.9130   -24.2970   -15.9920 ha         1 UY2       0.120000
     68 H37          9.9780   -22.2070   -11.4510 hn         1 UY2       0.327500
     69 H38          8.8570   -12.4050   -12.1640 hn         1 UY2       0.509000
     70 O17         11.5330   -23.7870   -12.7790 o          1 UY2      -0.559000
     71 C01         21.7010   -25.0320   -14.8320 c3         1 UY2      -0.083100
@<TRIPOS>BOND
     1     1    13 1   
     2     1    14 ar  
     3     1    25 ar  
     4     2    15 ar  
     5     2    24 ar  
     6     2    27 1   
     7     3    27 1   
     8     3    28 1   
     9     3    70 2   
    10     4     5 1   
    11     4    17 1   
    12     4    33 1   
    13     4    34 1   
    14     5    29 1   
    15     5    35 1   
    16     5    36 1   
    17     6    18 ar  
    18     6    19 ar  
    19     6    37 1   
    20     7     8 1   
    21     7    10 1   
    22     7    11 1   
    23     7    71 1   
    24     8     9 1   
    25     8    41 1   
    26     8    42 1   
    27     9    26 1   
    28     9    43 1   
    29     9    44 1   
    30    10    45 1   
    31    10    46 1   
    32    10    47 1   
    33    11    12 1   
    34    11    48 1   
    35    11    49 1   
    36    12    26 1   
    37    12    50 1   
    38    12    51 1   
    39    13    26 1   
    40    13    52 1   
    41    13    53 1   
    42    14    15 ar  
    43    14    54 1   
    44    15    55 1   
    45    16    17 1   
    46    16    27 1   
    47    16    56 1   
    48    16    57 1   
    49    17    23 1   
    50    17    28 1   
    51    18    29 1   
    52    18    32 ar  
    53    19    30 1   
    54    19    31 ar  
    55    20    30 1   
    56    20    58 1   
    57    20    59 1   
    58    20    60 1   
    59    21    31 ar  
    60    21    32 ar  
    61    21    61 1   
    62    22    23 1   
    63    22    29 1   
    64    22    62 1   
    65    22    63 1   
    66    23    64 1   
    67    23    65 1   
    68    24    25 ar  
    69    24    66 1   
    70    25    67 1   
    71    28    68 1   
    72    30    69 1   
    73    38    71 1   
    74    39    71 1   
    75    40    71 1   
@<TRIPOS>SUBSTRUCTURE
     1 UY2         1 TEMP              0 ****  ****    0 ROOT
