@<TRIPOS>MOLECULE
UY2
   71    75     1     0     0
SMALL
No Charge or Current Charge


@<TRIPOS>ATOM
      1 C10         16.5910   -22.2460   -15.1950 ca         1 UY2      -0.110300
      2 C13         14.3140   -21.6180   -13.6110 ca         1 UY2      -0.003000
      3 C15         12.4730   -22.3170   -12.0160 c          1 UY2       0.603000
      4 C20         10.2520   -19.7900   -12.2180 c6         1 UY2      -0.097400
      5 C21         10.1630   -18.2530   -12.3840 c6         1 UY2       0.219800
      6 C24          9.2530   -15.4750   -11.9300 ca         1 UY2      -0.371000
      7 C02         21.4100   -24.4740   -14.3660 c6         1 UY2      -0.048000
      8 C03         21.5150   -23.2330   -15.3030 c6         1 UY2      -0.066900
      9 C04         20.2280   -23.0090   -16.1400 c6         1 UY2       0.169800
     10 C05         22.6490   -24.5310   -13.4230 c3         1 UY2      -0.083100
     11 C06         20.1080   -24.3320   -13.5230 c6         1 UY2      -0.066900
     12 C07         18.8540   -24.0810   -14.4000 c6         1 UY2       0.169800
     13 C09         17.8070   -22.5670   -16.0600 c3         1 UY2       0.221100
     14 C11         16.5770   -21.0920   -14.3920 ca         1 UY2      -0.075500
     15 C12         15.4600   -20.7940   -13.5920 ca         1 UY2      -0.150000
     16 C18         12.8590   -20.0030   -12.2670 c5         1 UY2       0.093000
     17 C19         11.5240   -20.2330   -11.4480 c5         1 UY2       0.098400
     18 C23          9.6590   -16.2950   -10.8660 ca         1 UY2       0.409900
     19 C25          8.6570   -14.2540   -11.6110 ca         1 UY2       0.404900
     20 C27          8.2910   -13.5290   -14.0410 c3         1 UY2       0.222100
     21 C29          8.8940   -14.7110    -9.3920 ca         1 UY2       0.195900
     22 C31         11.4460   -17.9650   -10.2480 c6         1 UY2       0.219800
     23 C32         11.5060   -19.5020   -10.0820 c6         1 UY2      -0.097400
     24 C33         14.3650   -22.8090   -14.3680 ca         1 UY2      -0.150000
     25 C34         15.4800   -23.1080   -15.1710 ca         1 UY2      -0.075500
     26 N08         19.0230   -22.8850   -15.2750 n3         1 UY2      -0.725600
     27 N14         13.2480   -21.3660   -12.6710 n          1 UY2      -0.239400
     28 N16         11.5330   -21.6850   -11.2700 ns         1 UY2      -0.491900
     29 N22         10.2690   -17.5530   -11.0710 nh         1 UY2      -0.776300
     30 N26          8.2230   -13.3660   -12.5780 nu         1 UY2      -0.937100
     31 N28          8.4710   -13.8600   -10.3450 nb         1 UY2      -0.291000
     32 N30          9.4790   -15.9080    -9.5890 nb         1 UY2      -0.297000
     33 H1           9.3580   -20.1420   -11.6850 hc         1 UY2       0.062950
     34 H2          10.2250   -20.2660   -13.2070 hc         1 UY2       0.062950
     35 H3          10.9550   -17.9030   -13.0630 h1         1 UY2       0.054200
     36 H4           9.1990   -18.0260   -12.8630 h1         1 UY2       0.054200
     37 H5           9.4070   -15.7660   -12.9610 ha         1 UY2       0.126000
     38 H6          21.3420   -26.6780   -14.5290 hc         1 UY2       0.032533
     39 H7          20.5680   -25.8640   -15.8880 hc         1 UY2       0.032533
     40 H8          22.3270   -25.9080   -15.7780 hc         1 UY2       0.032533
     41 H9          22.3770   -23.3370   -15.9770 hc         1 UY2       0.045200
     42 H10         21.7040   -22.3310   -14.7040 hc         1 UY2       0.045200
     43 H11         20.1040   -23.8380   -16.8520 h1         1 UY2       0.031950
     44 H12         20.3590   -22.0950   -16.7370 h1         1 UY2       0.031950
     45 H13         22.5950   -25.3890   -12.7420 hc         1 UY2       0.032533
     46 H14         23.5830   -24.6180   -13.9920 hc         1 UY2       0.032533
     47 H15         22.7250   -23.6280   -12.8060 hc         1 UY2       0.032533
     48 H16         20.2130   -23.4960   -12.8170 hc         1 UY2       0.045200
     49 H17         19.9520   -25.2300   -12.9100 hc         1 UY2       0.045200
     50 H18         17.9930   -23.9470   -13.7300 h1         1 UY2       0.031950
     51 H19         18.6450   -24.9730   -15.0080 h1         1 UY2       0.031950
     52 H20         17.5640   -23.4050   -16.7290 h1         1 UY2       0.035200
     53 H21         17.9990   -21.6960   -16.7010 h1         1 UY2       0.035200
     54 H22         17.4430   -20.4330   -14.3770 ha         1 UY2       0.120000
     55 H23         15.4960   -19.9120   -12.9590 ha         1 UY2       0.125000
     56 H24         13.6390   -19.5580   -11.6360 h1         1 UY2       0.058700
     57 H25         12.7140   -19.3540   -13.1390 h1         1 UY2       0.058700
     58 H26          7.8640   -12.6520   -14.5450 h1         1 UY2       0.037700
     59 H27          9.3340   -13.6410   -14.3670 h1         1 UY2       0.037700
     60 H28          7.7290   -14.4180   -14.3560 h1         1 UY2       0.037700
     61 H29          8.7490   -14.4000    -8.3580 h5         1 UY2       0.041100
     62 H30         12.3730   -17.6090   -10.7200 h1         1 UY2       0.054200
     63 H31         11.4090   -17.5180    -9.2440 h1         1 UY2       0.054200
     64 H32         10.6390   -19.8330    -9.4940 hc         1 UY2       0.062950
     65 H33         12.3950   -19.7730    -9.4980 hc         1 UY2       0.062950
     66 H34         13.5260   -23.4980   -14.3710 ha         1 UY2       0.125000
     67 H35         15.4830   -24.0180   -15.7670 ha         1 UY2       0.120000
     68 H37         10.8760   -22.2350   -10.7310 hn         1 UY2       0.327500
     69 H38          7.8050   -12.5060   -12.2180 hn         1 UY2       0.509000
     70 O17         12.5990   -23.5310   -12.0550 o          1 UY2      -0.559000
     71 C01         21.4090   -25.8040   -15.1880 c3         1 UY2      -0.083100
@<TRIPOS>BOND
     1     1    13 1   
     2     1    14 ar  
     3     1    25 ar  
     4     2    15 ar  
     5     2    24 ar  
     6     2    27 1   
     7     3    27 1   
     8     3    28 1   
     9     3    70 2   
    10     4     5 1   
    11     4    17 1   
    12     4    33 1   
    13     4    34 1   
    14     5    29 1   
    15     5    35 1   
    16     5    36 1   
    17     6    18 ar  
    18     6    19 ar  
    19     6    37 1   
    20     7     8 1   
    21     7    10 1   
    22     7    11 1   
    23     7    71 1   
    24     8     9 1   
    25     8    41 1   
    26     8    42 1   
    27     9    26 1   
    28     9    43 1   
    29     9    44 1   
    30    10    45 1   
    31    10    46 1   
    32    10    47 1   
    33    11    12 1   
    34    11    48 1   
    35    11    49 1   
    36    12    26 1   
    37    12    50 1   
    38    12    51 1   
    39    13    26 1   
    40    13    52 1   
    41    13    53 1   
    42    14    15 ar  
    43    14    54 1   
    44    15    55 1   
    45    16    17 1   
    46    16    27 1   
    47    16    56 1   
    48    16    57 1   
    49    17    23 1   
    50    17    28 1   
    51    18    29 1   
    52    18    32 ar  
    53    19    30 1   
    54    19    31 ar  
    55    20    30 1   
    56    20    58 1   
    57    20    59 1   
    58    20    60 1   
    59    21    31 ar  
    60    21    32 ar  
    61    21    61 1   
    62    22    23 1   
    63    22    29 1   
    64    22    62 1   
    65    22    63 1   
    66    23    64 1   
    67    23    65 1   
    68    24    25 ar  
    69    24    66 1   
    70    25    67 1   
    71    28    68 1   
    72    30    69 1   
    73    38    71 1   
    74    39    71 1   
    75    40    71 1   
@<TRIPOS>SUBSTRUCTURE
     1 UY2         1 TEMP              0 ****  ****    0 ROOT
