@<TRIPOS>MOLECULE
UY3
   36    38     1     0     0
SMALL
No Charge or Current Charge


@<TRIPOS>ATOM
      1 C1          11.9360   -41.5470    11.0210 cc         1 UY3      -0.087300
      2 C2          10.5920   -41.4150    10.5200 cc         1 UY3       0.001700
      3 C3          12.2580   -41.3020    12.4890 c6         1 UY3      -0.013100
      4 C7          11.1650   -40.4940    13.2200 c6         1 UY3      -0.120400
      5 C9          14.3100   -42.1950    10.1480 ca         1 UY3       0.025000
      6 C11          9.7790   -41.0910    12.9250 c6         1 UY3       0.184000
      7 C13         14.9080   -42.6500    11.3460 ca         1 UY3      -0.154500
      8 C14         15.1390   -42.0850     9.0050 ca         1 UY3      -0.154500
      9 C20         16.2770   -42.9580    11.4000 ca         1 UY3       0.198000
     10 C21         16.5070   -42.3930     9.0700 ca         1 UY3       0.198000
     11 C22         17.0830   -42.8270    10.2660 ca         1 UY3      -0.181000
     12 C4          12.8630   -41.8590    10.0360 cd         1 UY3      -0.141000
     13 C5           9.4140   -41.0140    11.4140 c6         1 UY3       0.182600
     14 C6          10.5020   -41.6790     9.1660 cd         1 UY3      -0.453500
     15 S8          12.0630   -42.0560     8.4610 ss         1 UY3       0.378000
     16 O10          8.9700   -39.6910    11.0560 oh         1 UY3      -0.642000
     17 S12          9.0980   -41.5790     8.0860 sy         1 UY3       1.126500
     18 F15          9.7460   -42.4350    13.3460 f          1 UY3      -0.113500
     19 F16          8.8100   -40.4220    13.6990 f          1 UY3      -0.113500
     20 C17          8.4580   -43.2460     8.0660 c3         1 UY3      -0.338100
     21 O18          8.0760   -40.7340     8.7130 o          1 UY3      -0.533500
     22 O19          9.5780   -41.3050     6.7280 o          1 UY3      -0.533500
     23 F23         16.8180   -43.3970    12.5570 f          1 UY3      -0.169500
     24 F24         17.2740   -42.2640     7.9660 f          1 UY3      -0.169500
     25 H25         12.3720   -42.2620    13.0090 hc         1 UY3       0.066200
     26 H26         13.2140   -40.7700    12.5950 hc         1 UY3       0.066200
     27 H28         11.3580   -40.4930    14.3020 hc         1 UY3       0.082700
     28 H29         11.1930   -39.4460    12.8930 hc         1 UY3       0.082700
     29 H31         14.3280   -42.8160    12.2420 ha         1 UY3       0.144500
     30 H32         14.7440   -41.7320     8.0580 ha         1 UY3       0.144500
     31 H36         18.1410   -43.0670    10.3120 ha         1 UY3       0.157000
     32 H27          8.5920   -41.7270    11.2520 h1         1 UY3       0.069700
     33 H30          8.5590   -39.7970    10.1620 ho         1 UY3       0.490000
     34 H34          8.1880   -43.5180     9.0910 h1         1 UY3       0.107700
     35 H33          7.5790   -43.2630     7.4140 h1         1 UY3       0.107700
     36 H35          9.2410   -43.9070     7.6820 h1         1 UY3       0.107700
@<TRIPOS>BOND
     1     1     2 1   
     2     1     3 1   
     3     1    12 2   
     4     2    13 1   
     5     2    14 2   
     6     3     4 1   
     7     3    25 1   
     8     3    26 1   
     9     4     6 1   
    10     4    27 1   
    11     4    28 1   
    12     5     7 ar  
    13     5     8 ar  
    14     5    12 1   
    15     6    13 1   
    16     6    18 1   
    17     6    19 1   
    18     7     9 ar  
    19     7    29 1   
    20     8    10 ar  
    21     8    30 1   
    22     9    11 ar  
    23     9    23 1   
    24    10    11 ar  
    25    10    24 1   
    26    11    31 1   
    27    12    15 1   
    28    13    16 1   
    29    13    32 1   
    30    14    15 1   
    31    14    17 1   
    32    16    33 1   
    33    17    20 1   
    34    17    21 2   
    35    17    22 2   
    36    20    34 1   
    37    20    35 1   
    38    20    36 1   
@<TRIPOS>SUBSTRUCTURE
     1 UY3         1 TEMP              0 ****  ****    0 ROOT
