@<TRIPOS>MOLECULE
UY3
   36    38     1     0     0
SMALL
abcg2


@<TRIPOS>ATOM
      1 C1          11.9410   -41.6330    10.9740 cc         1 UY3      -0.087300
      2 C2          10.6180   -41.4810    10.4730 cc         1 UY3       0.001700
      3 C3          12.2890   -41.3580    12.4120 c6         1 UY3      -0.013100
      4 C7          11.2300   -40.4950    13.1030 c6         1 UY3      -0.120400
      5 C9          14.2740   -42.2640    10.1140 ca         1 UY3       0.025000
      6 C11          9.8490   -41.0100    12.7890 c6         1 UY3       0.184000
      7 C13         14.7840   -42.9660    11.2110 ca         1 UY3      -0.154500
      8 C14         15.1520   -41.7850     9.1330 ca         1 UY3      -0.154500
      9 C20         16.1480   -43.1600    11.3020 ca         1 UY3       0.198000
     10 C21         16.5060   -42.0150     9.2820 ca         1 UY3       0.198000
     11 C22         17.0460   -42.6980    10.3570 ca         1 UY3      -0.181000
     12 C4          12.8300   -42.0330     9.9940 cd         1 UY3      -0.141000
     13 C5           9.4790   -40.9370    11.3080 c6         1 UY3       0.182600
     14 C6          10.5360   -41.7800     9.1310 cd         1 UY3      -0.453500
     15 S8          12.0540   -42.2350     8.4650 ss         1 UY3       0.378000
     16 O10          9.2260   -39.5740    10.9980 oh         1 UY3      -0.642000
     17 S12          9.1220   -41.7460     8.1010 sy         1 UY3       1.126500
     18 F15          9.7440   -42.3380    13.1710 f          1 UY3      -0.113500
     19 F16          8.9050   -40.3420    13.5260 f          1 UY3      -0.113500
     20 C17          8.3330   -43.3140     8.3420 c3         1 UY3      -0.338100
     21 O18          8.2270   -40.7100     8.5970 o          1 UY3      -0.533500
     22 O19          9.5810   -41.6590     6.7290 o          1 UY3      -0.533500
     23 F23         16.6310   -43.8410    12.3650 f          1 UY3      -0.169500
     24 F24         17.3490   -41.5370     8.3400 f          1 UY3      -0.169500
     25 H25         12.3740   -42.3040    12.9510 hc         1 UY3       0.066200
     26 H26         13.2630   -40.8730    12.4790 hc         1 UY3       0.066200
     27 H28         11.3720   -40.5030    14.1830 hc         1 UY3       0.082700
     28 H29         11.2810   -39.4620    12.7560 hc         1 UY3       0.082700
     29 H31         14.1370   -43.3780    11.9710 ha         1 UY3       0.144500
     30 H32         14.7930   -41.2220     8.2830 ha         1 UY3       0.144500
     31 H36         18.1110   -42.8610    10.4530 ha         1 UY3       0.157000
     32 H27          8.5750   -41.5370    11.1700 h1         1 UY3       0.069700
     33 H30          8.8340   -39.5700    10.1100 ho         1 UY3       0.490000
     34 H34          8.0700   -43.4090     9.3940 h1         1 UY3       0.107700
     35 H33          7.4410   -43.3120     7.7150 h1         1 UY3       0.107700
     36 H35          9.0260   -44.0950     8.0350 h1         1 UY3       0.107700
@<TRIPOS>BOND
     1     1     2 1   
     2     1     3 1   
     3     1    12 2   
     4     2    13 1   
     5     2    14 2   
     6     3     4 1   
     7     3    25 1   
     8     3    26 1   
     9     4     6 1   
    10     4    27 1   
    11     4    28 1   
    12     5     7 ar  
    13     5     8 ar  
    14     5    12 1   
    15     6    13 1   
    16     6    18 1   
    17     6    19 1   
    18     7     9 ar  
    19     7    29 1   
    20     8    10 ar  
    21     8    30 1   
    22     9    11 ar  
    23     9    23 1   
    24    10    11 ar  
    25    10    24 1   
    26    11    31 1   
    27    12    15 1   
    28    13    16 1   
    29    13    32 1   
    30    14    15 1   
    31    14    17 1   
    32    16    33 1   
    33    17    20 1   
    34    17    21 2   
    35    17    22 2   
    36    20    34 1   
    37    20    35 1   
    38    20    36 1   
@<TRIPOS>SUBSTRUCTURE
     1 UY3         1 TEMP              0 ****  ****    0 ROOT
