@<TRIPOS>MOLECULE
UY5
   80    84     1     0     0
SMALL
abcg2


@<TRIPOS>ATOM
      1 C10        -44.1640    35.3940    24.3450 c6         1 UY5      -0.101400
      2 C13        -44.8950    34.6650    25.4840 c6         1 UY5       0.133400
      3 C17        -45.4210    31.7070    23.3300 ca         1 UY5       0.301000
      4 C20        -44.7570    29.5320    21.6290 ca         1 UY5      -0.116300
      5 C21        -44.3990    28.4010    20.6980 c3         1 UY5       0.219100
      6 C24        -41.7760    25.7010    20.7910 c6         1 UY5      -0.066400
      7 C28        -42.8690    25.8510    23.0210 c6         1 UY5      -0.066400
      8 C01        -39.1660    40.8580    22.1550 c3         1 UY5      -0.111600
      9 C03        -41.5740    41.3470    22.7510 c3         1 UY5      -0.111600
     10 C05        -40.6780    39.5880    25.3010 ca         1 UY5       0.405900
     11 C06        -41.7360    38.7240    25.0080 ca         1 UY5      -0.371000
     12 C07        -42.3150    38.0090    26.0680 ca         1 UY5       0.419900
     13 C09        -43.9920    36.8850    24.6170 c6         1 UY5       0.225300
     14 C11        -44.0080    36.4930    27.0260 c6         1 UY5       0.225300
     15 C12        -44.1960    34.9950    26.8080 c6         1 UY5      -0.101400
     16 C14        -44.8920    33.1570    25.2580 c6         1 UY5       0.199800
     17 C16        -47.1300    33.1020    24.3830 c6         1 UY5       0.117800
     18 C18        -46.4080    30.8450    22.8350 ca         1 UY5      -0.167000
     19 C19        -46.0710    29.7830    21.9980 ca         1 UY5      -0.064500
     20 C23        -42.8860    26.5820    20.2310 c6         1 UY5       0.167300
     21 C25        -42.2110    24.8820    22.0200 c6         1 UY5      -0.051000
     22 C27        -40.9790    24.2410    22.6640 c3         1 UY5      -0.083100
     23 C29        -43.9420    26.7320    22.3920 c6         1 UY5       0.167300
     24 C30        -43.7720    30.3880    22.1300 ca         1 UY5      -0.064500
     25 C31        -44.0870    31.4520    22.9560 ca         1 UY5      -0.167000
     26 C33        -47.3620    34.4370    25.0650 c          1 UY5       0.559000
     27 C36        -40.8680    39.0480    27.4970 ca         1 UY5       0.192900
     28 N08        -43.3220    37.1070    25.8930 nh         1 UY5      -0.795300
     29 N15        -45.7350    32.8160    24.1230 nh         1 UY5      -0.803400
     30 N22        -43.4080    27.4840    21.2570 n3         1 UY5      -0.722600
     31 N32        -46.2990    35.0940    25.5570 ns         1 UY5      -0.503900
     32 N35        -41.8670    38.1910    27.3370 nb         1 UY5      -0.303000
     33 N37        -40.2370    39.7590    26.5760 nb         1 UY5      -0.293000
     34 O34        -48.5130    34.8690    25.1700 o          1 UY5      -0.575000
     35 H1         -44.7120    35.2550    23.4120 hc         1 UY5       0.064700
     36 H2         -43.1770    34.9420    24.2250 hc         1 UY5       0.064700
     37 H3         -43.9740    28.8100    19.7770 h1         1 UY5       0.035700
     38 H4         -45.3210    27.8660    20.4110 h1         1 UY5       0.035700
     39 H5         -41.4140    25.0290    20.0060 hc         1 UY5       0.045700
     40 H6         -40.9390    26.3430    21.0780 hc         1 UY5       0.045700
     41 H7         -43.4900    23.1920    22.4930 hc         1 UY5       0.033200
     42 H8         -44.0920    24.1590    21.1460 hc         1 UY5       0.033200
     43 H9         -42.7130    23.0860    20.9080 hc         1 UY5       0.033200
     44 H10        -42.0930    26.4990    23.4410 hc         1 UY5       0.045700
     45 H11        -43.3020    25.2860    23.8510 hc         1 UY5       0.045700
     46 H12        -38.3430    40.1490    22.2630 hc         1 UY5       0.044533
     47 H13        -39.4170    40.9410    21.0970 hc         1 UY5       0.044533
     48 H14        -38.8260    41.8380    22.5010 hc         1 UY5       0.044533
     49 H15        -40.6630    39.4060    22.6060 h1         1 UY5       0.056700
     50 H16        -42.4340    41.0250    23.3400 hc         1 UY5       0.044533
     51 H17        -41.3060    42.3610    23.0560 hc         1 UY5       0.044533
     52 H18        -41.8690    41.3690    21.7000 hc         1 UY5       0.044533
     53 H19        -42.0820    38.6220    23.9950 ha         1 UY5       0.125000
     54 H20        -43.4180    37.3230    23.8080 h1         1 UY5       0.057200
     55 H21        -44.9670    37.3880    24.6290 h1         1 UY5       0.057200
     56 H22        -43.4240    36.6660    27.9220 h1         1 UY5       0.057200
     57 H23        -44.9770    36.9900    27.1720 h1         1 UY5       0.057200
     58 H24        -44.7670    34.5750    27.6390 hc         1 UY5       0.064700
     59 H25        -43.2150    34.5150    26.8000 hc         1 UY5       0.064700
     60 H26        -45.2560    32.6550    26.1670 h1         1 UY5       0.054700
     61 H27        -43.8730    32.8310    25.0850 h1         1 UY5       0.054700
     62 H28        -47.6880    33.1340    23.4480 h1         1 UY5       0.070700
     63 H29        -47.6070    32.3410    25.0220 h1         1 UY5       0.070700
     64 H30        -47.4450    30.9840    23.1030 ha         1 UY5       0.113500
     65 H31        -46.8590    29.1320    21.6370 ha         1 UY5       0.117000
     66 H32        -42.4960    27.1890    19.4110 h1         1 UY5       0.031450
     67 H33        -43.6930    25.9580    19.8090 h1         1 UY5       0.031450
     68 H34        -41.2570    23.6690    23.5540 hc         1 UY5       0.033200
     69 H35        -40.4870    23.5590    21.9660 hc         1 UY5       0.033200
     70 H36        -40.2550    25.0030    22.9620 hc         1 UY5       0.033200
     71 H37        -44.3130    27.4430    23.1320 h1         1 UY5       0.031450
     72 H38        -44.8060    26.1210    22.0780 h1         1 UY5       0.031450
     73 H39        -42.7360    30.2200    21.8580 ha         1 UY5       0.117000
     74 H40        -43.2960    32.1080    23.2920 ha         1 UY5       0.113500
     75 H41        -40.5240    39.1850    28.5200 h5         1 UY5       0.040100
     76 H42        -39.3520    40.9670    24.7150 hn         1 UY5       0.498000
     77 H44        -46.5110    35.9840    25.9870 hn         1 UY5       0.318500
     78 N04        -40.0110    40.2920    24.3570 nu         1 UY5      -0.934100
     79 C26        -43.1890    23.7690    21.6160 c3         1 UY5      -0.083100
     80 C02        -40.3850    40.4050    22.9510 c3         1 UY5       0.240500
@<TRIPOS>BOND
     1     1     2 1   
     2     1    13 1   
     3     1    35 1   
     4     1    36 1   
     5     2    15 1   
     6     2    16 1   
     7     2    31 1   
     8     3    18 ar  
     9     3    25 ar  
    10     3    29 1   
    11     4     5 1   
    12     4    19 ar  
    13     4    24 ar  
    14     5    30 1   
    15     5    37 1   
    16     5    38 1   
    17     6    20 1   
    18     6    21 1   
    19     6    39 1   
    20     6    40 1   
    21     7    21 1   
    22     7    23 1   
    23     7    44 1   
    24     7    45 1   
    25     8    46 1   
    26     8    47 1   
    27     8    48 1   
    28     8    80 1   
    29     9    50 1   
    30     9    51 1   
    31     9    52 1   
    32     9    80 1   
    33    10    11 ar  
    34    10    33 ar  
    35    10    78 1   
    36    11    12 ar  
    37    11    53 1   
    38    12    28 1   
    39    12    32 ar  
    40    13    28 1   
    41    13    54 1   
    42    13    55 1   
    43    14    15 1   
    44    14    28 1   
    45    14    56 1   
    46    14    57 1   
    47    15    58 1   
    48    15    59 1   
    49    16    29 1   
    50    16    60 1   
    51    16    61 1   
    52    17    26 1   
    53    17    29 1   
    54    17    62 1   
    55    17    63 1   
    56    18    19 ar  
    57    18    64 1   
    58    19    65 1   
    59    20    30 1   
    60    20    66 1   
    61    20    67 1   
    62    21    22 1   
    63    21    79 1   
    64    22    68 1   
    65    22    69 1   
    66    22    70 1   
    67    23    30 1   
    68    23    71 1   
    69    23    72 1   
    70    24    25 ar  
    71    24    73 1   
    72    25    74 1   
    73    26    31 1   
    74    26    34 2   
    75    27    32 ar  
    76    27    33 ar  
    77    27    75 1   
    78    31    77 1   
    79    41    79 1   
    80    42    79 1   
    81    43    79 1   
    82    49    80 1   
    83    76    78 1   
    84    78    80 1   
@<TRIPOS>SUBSTRUCTURE
     1 UY5         1 TEMP              0 ****  ****    0 ROOT
