@<TRIPOS>MOLECULE
UY5
   80    84     1     0     0
SMALL
No Charge or Current Charge


@<TRIPOS>ATOM
      1 C10        -44.2300    35.3660    24.5220 c6         1 UY5      -0.101400
      2 C13        -44.8500    34.6010    25.7270 c6         1 UY5       0.133400
      3 C17        -45.4590    31.6340    23.4370 ca         1 UY5       0.301000
      4 C20        -44.8340    29.5760    21.5910 ca         1 UY5      -0.116300
      5 C21        -44.4900    28.4680    20.6000 c3         1 UY5       0.219100
      6 C24        -41.8350    25.6910    20.5330 c6         1 UY5      -0.066400
      7 C28        -42.7130    25.9260    22.8850 c6         1 UY5      -0.066400
      8 C01        -38.6890    40.6770    22.4110 c3         1 UY5      -0.111600
      9 C03        -41.2240    40.5190    22.1390 c3         1 UY5      -0.111600
     10 C05        -41.0150    39.9560    25.3090 ca         1 UY5       0.405900
     11 C06        -41.7180    38.7670    25.1110 ca         1 UY5      -0.371000
     12 C07        -42.5520    38.3280    26.1450 ca         1 UY5       0.419900
     13 C09        -44.0950    36.8830    24.7910 c6         1 UY5       0.225300
     14 C11        -43.8340    36.4430    27.2330 c6         1 UY5       0.225300
     15 C12        -43.9890    34.9240    26.9790 c6         1 UY5      -0.101400
     16 C14        -44.8240    33.0580    25.4470 c6         1 UY5       0.199800
     17 C16        -47.1710    33.1710    24.5600 c6         1 UY5       0.117800
     18 C18        -46.4140    30.6530    23.1060 ca         1 UY5      -0.167000
     19 C19        -46.1050    29.6300    22.1920 ca         1 UY5      -0.064500
     20 C23        -43.0010    26.5880    20.0410 c6         1 UY5       0.167300
     21 C25        -42.1940    24.9040    21.8290 c6         1 UY5      -0.051000
     22 C27        -40.9280    24.1760    22.3740 c3         1 UY5      -0.083100
     23 C29        -43.8570    26.8190    22.3380 c6         1 UY5       0.167300
     24 C30        -43.8790    30.5580    21.9120 ca         1 UY5      -0.064500
     25 C31        -44.1920    31.5780    22.8270 ca         1 UY5      -0.167000
     26 C33        -47.3560    34.5070    25.3530 c          1 UY5       0.559000
     27 C36        -41.9290    40.1520    27.3890 ca         1 UY5       0.192900
     28 N08        -43.2990    37.1370    26.0250 nh         1 UY5      -0.795300
     29 N15        -45.7640    32.6700    24.3530 nh         1 UY5      -0.803400
     30 N22        -43.4500    27.5370    21.0960 n3         1 UY5      -0.722600
     31 N32        -46.2380    35.0620    25.9400 ns         1 UY5      -0.503900
     32 N35        -42.6540    39.0210    27.2960 nb         1 UY5      -0.303000
     33 N37        -41.1100    40.6560    26.4460 nb         1 UY5      -0.293000
     34 O34        -48.4470    35.0440    25.4850 o          1 UY5      -0.575000
     35 H1         -44.8360    35.2130    23.6200 hc         1 UY5       0.064700
     36 H2         -43.2360    34.9590    24.2940 hc         1 UY5       0.064700
     37 H3         -44.1470    28.9450    19.6710 h1         1 UY5       0.035700
     38 H4         -45.4030    27.9100    20.3490 h1         1 UY5       0.035700
     39 H5         -41.5450    24.9950    19.7330 hc         1 UY5       0.045700
     40 H6         -40.9580    26.3270    20.7160 hc         1 UY5       0.045700
     41 H7         -43.5080    23.2380    22.4530 hc         1 UY5       0.033200
     42 H8         -44.1980    24.2090    21.1530 hc         1 UY5       0.033200
     43 H9         -42.8940    23.0740    20.8030 hc         1 UY5       0.033200
     44 H10        -41.8880    26.5760    23.2090 hc         1 UY5       0.045700
     45 H11        -43.0580    25.4000    23.7860 hc         1 UY5       0.045700
     46 H12        -37.8290    40.3360    23.0000 hc         1 UY5       0.044533
     47 H13        -38.5320    40.3620    21.3730 hc         1 UY5       0.044533
     48 H14        -38.7140    41.7730    22.4360 hc         1 UY5       0.044533
     49 H15        -39.9070    38.9850    22.9020 h1         1 UY5       0.056700
     50 H16        -42.1410    40.0590    22.5250 hc         1 UY5       0.044533
     51 H17        -41.3460    41.6080    22.1680 hc         1 UY5       0.044533
     52 H18        -41.1110    40.2150    21.0910 hc         1 UY5       0.044533
     53 H19        -41.6120    38.1930    24.1990 ha         1 UY5       0.125000
     54 H20        -43.6290    37.3480    23.9110 h1         1 UY5       0.057200
     55 H21        -45.0960    37.3290    24.8900 h1         1 UY5       0.057200
     56 H22        -43.1530    36.5730    28.0880 h1         1 UY5       0.057200
     57 H23        -44.8040    36.8760    27.5220 h1         1 UY5       0.057200
     58 H24        -44.4250    34.4500    27.8690 hc         1 UY5       0.064700
     59 H25        -42.9880    34.4860    26.8610 hc         1 UY5       0.064700
     60 H26        -45.1060    32.5260    26.3680 h1         1 UY5       0.054700
     61 H27        -43.7940    32.7520    25.2160 h1         1 UY5       0.054700
     62 H28        -47.6570    33.3330    23.5870 h1         1 UY5       0.070700
     63 H29        -47.7580    32.4210    25.1080 h1         1 UY5       0.070700
     64 H30        -47.3980    30.6680    23.5630 ha         1 UY5       0.113500
     65 H31        -46.8540    28.8770    21.9560 ha         1 UY5       0.117000
     66 H32        -42.6590    27.1440    19.1550 h1         1 UY5       0.031450
     67 H33        -43.8390    25.9560    19.7130 h1         1 UY5       0.031450
     68 H34        -41.1490    23.6240    23.2960 hc         1 UY5       0.033200
     69 H35        -40.5330    23.4590    21.6450 hc         1 UY5       0.033200
     70 H36        -40.1250    24.8870    22.6030 hc         1 UY5       0.033200
     71 H37        -44.1320    27.5370    23.1240 h1         1 UY5       0.031450
     72 H38        -44.7470    26.2020    22.1480 h1         1 UY5       0.031450
     73 H39        -42.8940    30.5280    21.4510 ha         1 UY5       0.117000
     74 H40        -43.4470    32.3360    23.0480 ha         1 UY5       0.113500
     75 H41        -42.0120    40.7130    28.3180 h5         1 UY5       0.040100
     76 H42        -39.6990    41.3510    24.6470 hn         1 UY5       0.498000
     77 H44        -46.3940    35.9110    26.4670 hn         1 UY5       0.318500
     78 N04        -40.1560    40.4850    24.3620 nu         1 UY5      -0.934100
     79 C26        -43.2600    23.7980    21.5420 c3         1 UY5      -0.083100
     80 C02        -39.9960    40.0790    22.9620 c3         1 UY5       0.240500
@<TRIPOS>BOND
     1     1     2 1   
     2     1    13 1   
     3     1    35 1   
     4     1    36 1   
     5     2    15 1   
     6     2    16 1   
     7     2    31 1   
     8     3    18 ar  
     9     3    25 ar  
    10     3    29 1   
    11     4     5 1   
    12     4    19 ar  
    13     4    24 ar  
    14     5    30 1   
    15     5    37 1   
    16     5    38 1   
    17     6    20 1   
    18     6    21 1   
    19     6    39 1   
    20     6    40 1   
    21     7    21 1   
    22     7    23 1   
    23     7    44 1   
    24     7    45 1   
    25     8    46 1   
    26     8    47 1   
    27     8    48 1   
    28     8    80 1   
    29     9    50 1   
    30     9    51 1   
    31     9    52 1   
    32     9    80 1   
    33    10    11 ar  
    34    10    33 ar  
    35    10    78 1   
    36    11    12 ar  
    37    11    53 1   
    38    12    28 1   
    39    12    32 ar  
    40    13    28 1   
    41    13    54 1   
    42    13    55 1   
    43    14    15 1   
    44    14    28 1   
    45    14    56 1   
    46    14    57 1   
    47    15    58 1   
    48    15    59 1   
    49    16    29 1   
    50    16    60 1   
    51    16    61 1   
    52    17    26 1   
    53    17    29 1   
    54    17    62 1   
    55    17    63 1   
    56    18    19 ar  
    57    18    64 1   
    58    19    65 1   
    59    20    30 1   
    60    20    66 1   
    61    20    67 1   
    62    21    22 1   
    63    21    79 1   
    64    22    68 1   
    65    22    69 1   
    66    22    70 1   
    67    23    30 1   
    68    23    71 1   
    69    23    72 1   
    70    24    25 ar  
    71    24    73 1   
    72    25    74 1   
    73    26    31 1   
    74    26    34 2   
    75    27    32 ar  
    76    27    33 ar  
    77    27    75 1   
    78    31    77 1   
    79    41    79 1   
    80    42    79 1   
    81    43    79 1   
    82    49    80 1   
    83    76    78 1   
    84    78    80 1   
@<TRIPOS>SUBSTRUCTURE
     1 UY5         1 TEMP              0 ****  ****    0 ROOT
