@<TRIPOS>MOLECULE
UY7
   17    17     1     0     0
SMALL
No Charge or Current Charge


@<TRIPOS>ATOM
      1 CB         -20.6600    73.9880   103.1120 c5         1 UY7      -0.070400
      2 CG         -20.7790    74.5300   104.5610 c5         1 UY7       0.142300
      3 CD         -22.0830    75.3580   104.3820 c5         1 UY7       0.129800
      4 CA         -22.1450    73.6260   102.7490 c5         1 UY7       0.023500
      5 C          -22.3970    73.9450   101.2130 c          1 UY7       0.708000
      6 N          -23.0020    74.3880   103.7420 n7         1 UY7      -0.860400
      7 OXT        -23.2060    74.8120   100.9060 o          1 UY7      -0.733000
      8 O          -21.8140    73.2820   100.3650 o          1 UY7      -0.733000
      9 O09        -20.9680    73.4710   105.4970 oh         1 UY7      -0.652000
     10 HB2        -19.9860    73.1280   103.0320 hc         1 UY7       0.048700
     11 HB3        -20.2640    74.7650   102.4470 hc         1 UY7       0.048700
     12 HG2        -19.9190    75.1510   104.8450 h1         1 UY7       0.009700
     13 HD2        -21.9120    76.2210   103.7230 h1         1 UY7       0.012200
     14 HD3        -22.4860    75.7310   105.3330 h1         1 UY7       0.012200
     15 HA         -22.3160    72.5480   102.8770 h1         1 UY7       0.059700
     16 H          -23.7350    74.8970   103.2240 hn         1 UY7       0.435000
     17 H10        -21.8880    73.1750   105.3080 ho         1 UY7       0.419000
@<TRIPOS>BOND
     1     1     2 1   
     2     1     4 1   
     3     1    10 1   
     4     1    11 1   
     5     2     3 1   
     6     2     9 1   
     7     2    12 1   
     8     3     6 1   
     9     3    13 1   
    10     3    14 1   
    11     4     5 1   
    12     4     6 1   
    13     4    15 1   
    14     5     7 1   
    15     5     8 1   
    16     6    16 1   
    17     9    17 1   
@<TRIPOS>SUBSTRUCTURE
     1 UY7         1 TEMP              0 ****  ****    0 ROOT
