@<TRIPOS>MOLECULE
UY7
   17    17     1     0     0
SMALL
abcg2


@<TRIPOS>ATOM
      1 CB         -20.7300    74.0060   103.0680 c5         1 UY7      -0.070400
      2 CG         -20.9040    74.4550   104.5080 c5         1 UY7       0.142300
      3 CD         -22.2090    75.2420   104.4220 c5         1 UY7       0.129800
      4 CA         -22.1660    73.6760   102.6270 c5         1 UY7       0.023500
      5 C          -22.3590    73.8830   101.1120 c          1 UY7       0.708000
      6 N          -23.0330    74.5120   103.4600 n7         1 UY7      -0.860400
      7 OXT        -23.1740    74.7530   100.7450 o          1 UY7      -0.733000
      8 O          -21.6620    73.1520   100.3820 o          1 UY7      -0.733000
      9 O09        -21.0180    73.3010   105.3190 oh         1 UY7      -0.652000
     10 HB2        -20.0380    73.1710   102.9600 hc         1 UY7       0.048700
     11 HB3        -20.3290    74.8430   102.4890 hc         1 UY7       0.048700
     12 HG2        -20.0790    75.0920   104.8510 h1         1 UY7       0.009700
     13 HD2        -21.9820    76.2650   104.0980 h1         1 UY7       0.012200
     14 HD3        -22.6950    75.3260   105.4010 h1         1 UY7       0.012200
     15 HA         -22.3590    72.6150   102.8350 h1         1 UY7       0.059700
     16 H          -23.5210    75.1480   102.8430 hn         1 UY7       0.435000
     17 H10        -21.3030    73.5760   106.1960 ho         1 UY7       0.419000
@<TRIPOS>BOND
     1     1     2 1   
     2     1     4 1   
     3     1    10 1   
     4     1    11 1   
     5     2     3 1   
     6     2     9 1   
     7     2    12 1   
     8     3     6 1   
     9     3    13 1   
    10     3    14 1   
    11     4     5 1   
    12     4     6 1   
    13     4    15 1   
    14     5     7 1   
    15     5     8 1   
    16     6    16 1   
    17     9    17 1   
@<TRIPOS>SUBSTRUCTURE
     1 UY7         1 TEMP              0 ****  ****    0 ROOT
