@<TRIPOS>MOLECULE
UY9
   71    76     1     0     0
SMALL
No Charge or Current Charge


@<TRIPOS>ATOM
      1 N1          12.5100    17.5070    25.0000 n          1 UY9      -0.258400
      2 N3           6.5210    14.3710    23.1310 nc         1 UY9      -0.463800
      3 C4          11.6150    18.0450    21.4010 ca         1 UY9      -0.022000
      4 C5          10.8330    17.4600    20.3900 ca         1 UY9      -0.134300
      5 C6           9.8310    16.5410    20.7450 ca         1 UY9      -0.047000
      6 C7          10.3200    16.3630    24.5720 c6         1 UY9      -0.056100
      7 C8          11.7090    16.2810    25.2220 c6         1 UY9       0.117000
      8 C10          8.4910    15.2540    22.3750 cd         1 UY9      -0.116000
      9 C13          8.2350    14.1550    21.6010 cc         1 UY9      -0.154000
     10 C15         14.6200    17.7420    18.2730 cc         1 UY9       0.230900
     11 C20         15.4280    18.9230    26.9800 ca         1 UY9       0.301000
     12 C21         13.4680    18.9850    28.2680 ca         1 UY9       0.373900
     13 C22         12.7140    18.3640    27.2730 ca         1 UY9      -0.163000
     14 C24         16.7450    18.1790    24.5670 ca         1 UY9      -0.077300
     15 C26         16.8150    19.2170    26.7970 ca         1 UY9      -0.126600
     16 C28         16.9320    18.5530    22.0510 c3         1 UY9      -0.089100
     17 C1           9.5820    16.2120    22.0930 ca         1 UY9      -0.023000
     18 C11         11.0560    17.8140    18.9200 c3         1 UY9       0.127900
     19 C12          7.3590    15.3930    23.2420 cd         1 UY9       0.151300
     20 C14         13.0130    19.1410    17.9600 cd         1 UY9       0.394400
     21 C16         13.5040    17.1120    18.7500 cd         1 UY9      -0.231000
     22 C18         13.3410    17.9530    26.0890 ca         1 UY9       0.019000
     23 C19         14.7170    18.2680    25.9280 ca         1 UY9      -0.084000
     24 C2          10.4190    16.7630    23.1000 ca         1 UY9      -0.007300
     25 C23         15.3920    17.8840    24.7500 ca         1 UY9      -0.071000
     26 C25         17.4430    18.8430    25.5840 ca         1 UY9      -0.037000
     27 C29         17.6940    19.9210    27.8260 c          1 UY9       0.603700
     28 C3          11.4370    17.6750    22.7470 ca         1 UY9      -0.150600
     29 C30         17.8440    20.9930    30.1020 c3         1 UY9       0.102300
     30 C9          12.3600    18.2440    23.7970 c          1 UY9       0.580600
     31 F1           7.5820    17.7250    23.7740 f          1 UY9      -0.105333
     32 F2           7.3010    16.3420    25.4350 f          1 UY9      -0.105333
     33 F3           5.6500    16.8200    24.1150 f          1 UY9      -0.105333
     34 N2          12.4700    18.0110    18.5550 na         1 UY9      -0.180500
     35 N4           7.0770    13.6100    22.1340 na         1 UY9       0.139800
     36 N5          14.3200    18.9830    17.7870 nc         1 UY9      -0.671000
     37 N6          14.7820    19.2560    28.1280 nb         1 UY9      -0.700000
     38 N7          17.1360    20.3110    29.0180 ns         1 UY9      -0.501900
     39 O1          12.9370    19.3090    23.6150 o          1 UY9      -0.539000
     40 O2          18.8800    20.1450    27.6140 o          1 UY9      -0.634100
     41 H1          12.3950    18.7580    21.1380 ha         1 UY9       0.142000
     42 H2           9.2130    16.1030    19.9640 ha         1 UY9       0.121000
     43 H3           9.7330    17.1120    25.1160 hc         1 UY9       0.075700
     44 H4           9.8140    15.3960    24.6940 hc         1 UY9       0.075700
     45 H5          11.6000    16.0840    26.2980 h1         1 UY9       0.054200
     46 H6          12.2570    15.4320    24.7910 h1         1 UY9       0.054200
     47 H7           8.7710    13.7150    20.7690 h4         1 UY9       0.166000
     48 H8          15.6380    17.3740    18.2470 h4         1 UY9       0.037100
     49 H9          13.0030    19.3010    29.2010 h4         1 UY9       0.024100
     50 H10         11.6480    18.2220    27.4230 ha         1 UY9       0.137000
     51 H11         17.4710    18.2470    21.1470 hc         1 UY9       0.040700
     52 H12         15.8630    18.3700    21.8890 hc         1 UY9       0.040700
     53 H13         17.0810    19.6300    22.1920 hc         1 UY9       0.040700
     54 H14         10.4990    18.7320    18.6880 h1         1 UY9       0.070700
     55 H15         10.6510    17.0160    18.2840 h1         1 UY9       0.070700
     56 H16         12.4160    20.0060    17.6970 h5         1 UY9       0.056100
     57 H17         13.3800    16.1350    19.2020 h4         1 UY9       0.151000
     58 H18         14.8740    17.3390    23.9660 ha         1 UY9       0.120000
     59 H19         18.4970    19.0650    25.4260 ha         1 UY9       0.148000
     60 H20         17.3000    16.6980    23.0980 hc         1 UY9       0.048700
     61 H21         18.5300    17.9200    23.3590 hc         1 UY9       0.048700
     62 H22         17.1490    21.1800    30.9310 h1         1 UY9       0.037700
     63 H23         18.6700    20.3640    30.4580 h1         1 UY9       0.037700
     64 H24         18.2410    21.9490    29.7390 h1         1 UY9       0.037700
     65 H25          5.4800    12.6250    21.1810 h1         1 UY9       0.066033
     66 H26          7.0700    11.8230    21.0140 h1         1 UY9       0.066033
     67 H27          6.1920    11.7490    22.5690 h1         1 UY9       0.066033
     68 H28         16.1490    20.0900    29.1250 hn         1 UY9       0.358500
     69 C17          6.9810    16.5700    24.1410 c3         1 UY9       0.282700
     70 C27         17.4470    17.7700    23.2760 c3         1 UY9      -0.033100
     71 C31          6.4140    12.3750    21.6970 c3         1 UY9       0.070900
@<TRIPOS>BOND
     1     1     7 1   
     2     1    22 1   
     3     1    30 1   
     4     2    19 2   
     5     2    35 1   
     6     3     4 ar  
     7     3    28 ar  
     8     3    41 1   
     9     4     5 ar  
    10     4    18 1   
    11     5    17 ar  
    12     5    42 1   
    13     6     7 1   
    14     6    24 1   
    15     6    43 1   
    16     6    44 1   
    17     7    45 1   
    18     7    46 1   
    19     8     9 2   
    20     8    17 1   
    21     8    19 1   
    22     9    35 1   
    23     9    47 1   
    24    10    21 2   
    25    10    36 1   
    26    10    48 1   
    27    11    15 ar  
    28    11    23 ar  
    29    11    37 ar  
    30    12    13 ar  
    31    12    37 ar  
    32    12    49 1   
    33    13    22 ar  
    34    13    50 1   
    35    14    25 ar  
    36    14    26 ar  
    37    14    70 1   
    38    15    26 ar  
    39    15    27 1   
    40    16    51 1   
    41    16    52 1   
    42    16    53 1   
    43    16    70 1   
    44    17    24 ar  
    45    18    34 1   
    46    18    54 1   
    47    18    55 1   
    48    19    69 1   
    49    20    34 1   
    50    20    36 2   
    51    20    56 1   
    52    21    34 1   
    53    21    57 1   
    54    22    23 ar  
    55    23    25 ar  
    56    24    28 ar  
    57    25    58 1   
    58    26    59 1   
    59    27    38 1   
    60    27    40 2   
    61    28    30 1   
    62    29    38 1   
    63    29    62 1   
    64    29    63 1   
    65    29    64 1   
    66    30    39 2   
    67    31    69 1   
    68    32    69 1   
    69    33    69 1   
    70    35    71 1   
    71    38    68 1   
    72    60    70 1   
    73    61    70 1   
    74    65    71 1   
    75    66    71 1   
    76    67    71 1   
@<TRIPOS>SUBSTRUCTURE
     1 UY9         1 TEMP              0 ****  ****    0 ROOT
