@<TRIPOS>MOLECULE
UY9
   71    76     1     0     0
SMALL
abcg2


@<TRIPOS>ATOM
      1 N1          12.2890    18.1170    24.9420 n          1 UY9      -0.258400
      2 N3           7.0790    13.9810    22.9000 nc         1 UY9      -0.463800
      3 C4          11.2610    18.7190    21.4760 ca         1 UY9      -0.022000
      4 C5          10.5000    18.1520    20.4630 ca         1 UY9      -0.134300
      5 C6           9.7060    17.0480    20.7590 ca         1 UY9      -0.047000
      6 C7          10.5070    16.5000    24.4490 c6         1 UY9      -0.056100
      7 C8          11.8770    16.7080    25.0640 c6         1 UY9       0.117000
      8 C10          8.8250    15.3110    22.2950 cd         1 UY9      -0.116000
      9 C13          9.1170    13.9940    21.9870 cc         1 UY9      -0.154000
     10 C15         13.2180    16.9070    17.3640 cc         1 UY9       0.230900
     11 C20         15.2800    19.0530    26.9990 ca         1 UY9       0.301000
     12 C21         13.3600    19.7360    28.0890 ca         1 UY9       0.373900
     13 C22         12.5260    19.2550    27.0650 ca         1 UY9      -0.163000
     14 C24         16.5320    17.8400    24.7580 ca         1 UY9      -0.077300
     15 C26         16.7080    18.9290    26.9500 ca         1 UY9      -0.126600
     16 C28         17.8040    18.3230    22.6370 c3         1 UY9      -0.089100
     17 C1           9.6750    16.4940    22.0390 ca         1 UY9      -0.023000
     18 C11         10.5730    18.6940    19.0560 c3         1 UY9       0.127900
     19 C12          7.5370    15.2320    22.8690 cd         1 UY9       0.151300
     20 C14         12.9170    18.8820    18.1500 cd         1 UY9       0.394400
     21 C16         11.9390    16.9340    17.8530 cd         1 UY9      -0.231000
     22 C18         13.1060    18.6590    25.9790 ca         1 UY9       0.019000
     23 C19         14.5170    18.5430    25.9040 ca         1 UY9      -0.084000
     24 C2          10.4690    17.0490    23.0500 ca         1 UY9      -0.007300
     25 C23         15.1650    17.9410    24.8030 ca         1 UY9      -0.071000
     26 C25         17.2800    18.3380    25.8460 ca         1 UY9      -0.037000
     27 C29         17.6700    19.3820    28.0260 c          1 UY9       0.603700
     28 C3          11.2490    18.1750    22.7570 ca         1 UY9      -0.150600
     29 C30         17.9870    20.4610    30.1910 c3         1 UY9       0.102300
     30 C9          12.0780    18.8360    23.8080 c          1 UY9       0.580600
     31 F1           6.1160    17.0310    22.2960 f          1 UY9      -0.105333
     32 F2           7.3670    17.2640    24.0480 f          1 UY9      -0.105333
     33 F3           5.6560    15.9310    24.1070 f          1 UY9      -0.105333
     34 N2          11.7550    18.2060    18.3450 na         1 UY9      -0.180500
     35 N4           8.0520    13.2450    22.3560 na         1 UY9       0.139800
     36 N5          13.8240    18.1310    17.5540 nc         1 UY9      -0.671000
     37 N6          14.6710    19.6400    28.0640 nb         1 UY9      -0.700000
     38 N7          17.1550    19.9890    29.1020 ns         1 UY9      -0.501900
     39 O1          12.5420    19.9670    23.6590 o          1 UY9      -0.539000
     40 O2          18.8870    19.1910    27.8990 o          1 UY9      -0.634100
     41 H1          11.8780    19.5860    21.2790 ha         1 UY9       0.142000
     42 H2           9.0970    16.6030    19.9810 ha         1 UY9       0.121000
     43 H3           9.7480    17.0000    25.0580 hc         1 UY9       0.075700
     44 H4          10.2710    15.4360    24.4520 hc         1 UY9       0.075700
     45 H5          11.8630    16.4610    26.1240 h1         1 UY9       0.054200
     46 H6          12.6180    16.0670    24.5770 h1         1 UY9       0.054200
     47 H7           9.9910    13.5560    21.5370 h4         1 UY9       0.166000
     48 H8          13.7290    16.0870    16.8860 h4         1 UY9       0.037100
     49 H9          12.9230    20.2160    28.9580 h4         1 UY9       0.024100
     50 H10         11.4510    19.3510    27.1370 ha         1 UY9       0.137000
     51 H11         18.3190    17.8670    21.7890 hc         1 UY9       0.040700
     52 H12         17.0040    18.9580    22.2510 hc         1 UY9       0.040700
     53 H13         18.5170    18.9600    23.1650 hc         1 UY9       0.040700
     54 H14         10.6320    19.7820    19.0660 h1         1 UY9       0.070700
     55 H15          9.6890    18.4070    18.4890 h1         1 UY9       0.070700
     56 H16         13.0370    19.9100    18.4550 h5         1 UY9       0.056100
     57 H17         11.1600    16.1930    17.8920 h4         1 UY9       0.151000
     58 H18         14.5670    17.5580    23.9880 ha         1 UY9       0.120000
     59 H19         18.3580    18.2520    25.8260 ha         1 UY9       0.148000
     60 H20         16.5400    16.6130    23.0160 hc         1 UY9       0.048700
     61 H21         18.0520    16.6030    23.9150 hc         1 UY9       0.048700
     62 H22         17.3520    20.9730    30.9110 h1         1 UY9       0.037700
     63 H23         18.4930    19.6320    30.6910 h1         1 UY9       0.037700
     64 H24         18.7470    21.1550    29.8290 h1         1 UY9       0.037700
     65 H25          6.9410    11.5360    21.9390 h1         1 UY9       0.066033
     66 H26          8.6890    11.4160    21.6240 h1         1 UY9       0.066033
     67 H27          8.0820    11.3730    23.2960 h1         1 UY9       0.066033
     68 H28         16.1420    20.0850    29.1300 hn         1 UY9       0.358500
     69 C17          6.6720    16.3520    23.3330 c3         1 UY9       0.282700
     70 C27         17.2380    17.2440    23.5690 c3         1 UY9      -0.033100
     71 C31          7.9320    11.7990    22.3040 c3         1 UY9       0.070900
@<TRIPOS>BOND
     1     1     7 1   
     2     1    22 1   
     3     1    30 1   
     4     2    19 2   
     5     2    35 1   
     6     3     4 ar  
     7     3    28 ar  
     8     3    41 1   
     9     4     5 ar  
    10     4    18 1   
    11     5    17 ar  
    12     5    42 1   
    13     6     7 1   
    14     6    24 1   
    15     6    43 1   
    16     6    44 1   
    17     7    45 1   
    18     7    46 1   
    19     8     9 2   
    20     8    17 1   
    21     8    19 1   
    22     9    35 1   
    23     9    47 1   
    24    10    21 2   
    25    10    36 1   
    26    10    48 1   
    27    11    15 ar  
    28    11    23 ar  
    29    11    37 ar  
    30    12    13 ar  
    31    12    37 ar  
    32    12    49 1   
    33    13    22 ar  
    34    13    50 1   
    35    14    25 ar  
    36    14    26 ar  
    37    14    70 1   
    38    15    26 ar  
    39    15    27 1   
    40    16    51 1   
    41    16    52 1   
    42    16    53 1   
    43    16    70 1   
    44    17    24 ar  
    45    18    34 1   
    46    18    54 1   
    47    18    55 1   
    48    19    69 1   
    49    20    34 1   
    50    20    36 2   
    51    20    56 1   
    52    21    34 1   
    53    21    57 1   
    54    22    23 ar  
    55    23    25 ar  
    56    24    28 ar  
    57    25    58 1   
    58    26    59 1   
    59    27    38 1   
    60    27    40 2   
    61    28    30 1   
    62    29    38 1   
    63    29    62 1   
    64    29    63 1   
    65    29    64 1   
    66    30    39 2   
    67    31    69 1   
    68    32    69 1   
    69    33    69 1   
    70    35    71 1   
    71    38    68 1   
    72    60    70 1   
    73    61    70 1   
    74    65    71 1   
    75    66    71 1   
    76    67    71 1   
@<TRIPOS>SUBSTRUCTURE
     1 UY9         1 TEMP              0 ****  ****    0 ROOT
