@<TRIPOS>MOLECULE
UYA
   17    17     1     0     0
SMALL
No Charge or Current Charge


@<TRIPOS>ATOM
      1 N          -22.8830    74.6470   102.9650 n7         1 UYA      -0.851400
      2 CA         -22.1540    73.5860   102.1720 c5         1 UYA       0.015500
      3 C          -22.3080    73.6630   100.5930 c          1 UYA       0.718000
      4 OXT        -22.6120    74.7280   100.0680 o          1 UYA      -0.731000
      5 CB         -20.6360    73.7330   102.5530 c5         1 UYA      -0.069400
      6 CG         -20.5900    74.9840   103.4770 c5         1 UYA       0.125300
      7 CD         -22.0010    74.8860   104.1260 c5         1 UYA       0.119800
      8 OD1        -20.4070    76.1940   102.7310 oh         1 UYA      -0.631000
      9 O          -22.2130    72.6320    99.9400 o          1 UYA      -0.731000
     10 H          -22.8460    75.5000   102.3860 hn         1 UYA       0.438000
     11 HA         -22.5060    72.5920   102.4820 h1         1 UYA       0.046700
     12 HB2        -20.2930    72.8430   103.0920 hc         1 UYA       0.043200
     13 HB3        -19.9810    73.8400   101.6800 hc         1 UYA       0.043200
     14 HG2        -19.7950    74.8930   104.2300 h1         1 UYA       0.005700
     15 HD2        -22.2800    75.8030   104.6630 h1         1 UYA       0.021200
     16 HD3        -22.0550    74.0470   104.8350 h1         1 UYA       0.021200
     17 H10        -20.4200    76.9300   103.3790 ho         1 UYA       0.415000
@<TRIPOS>BOND
     1     1     2 1   
     2     1     7 1   
     3     1    10 1   
     4     2     3 1   
     5     2     5 1   
     6     2    11 1   
     7     3     4 1   
     8     3     9 1   
     9     5     6 1   
    10     5    12 1   
    11     5    13 1   
    12     6     7 1   
    13     6     8 1   
    14     6    14 1   
    15     7    15 1   
    16     7    16 1   
    17     8    17 1   
@<TRIPOS>SUBSTRUCTURE
     1 UYA         1 TEMP              0 ****  ****    0 ROOT
