@<TRIPOS>MOLECULE
UYA
   17    17     1     0     0
SMALL
abcg2


@<TRIPOS>ATOM
      1 N          -22.8820    74.4400   103.0720 n7         1 UYA      -0.851400
      2 CA         -22.1300    73.5610   102.1710 c5         1 UYA       0.015500
      3 C          -22.2630    73.9660   100.6840 c          1 UYA       0.718000
      4 OXT        -22.9790    74.9530   100.4150 o          1 UYA      -0.731000
      5 CB         -20.6650    73.5930   102.6650 c5         1 UYA      -0.069400
      6 CG         -20.5660    74.9000   103.4320 c5         1 UYA       0.125300
      7 CD         -21.9520    74.9520   104.0710 c5         1 UYA       0.119800
      8 OD1        -20.3580    75.9470   102.5050 oh         1 UYA      -0.631000
      9 O          -21.6470    73.2450    99.8760 o          1 UYA      -0.731000
     10 H          -23.2150    75.2050   102.4950 hn         1 UYA       0.438000
     11 HA         -22.5010    72.5310   102.2470 h1         1 UYA       0.046700
     12 HB2        -20.4720    72.7700   103.3560 hc         1 UYA       0.043200
     13 HB3        -19.9390    73.5100   101.8570 hc         1 UYA       0.043200
     14 HG2        -19.7690    74.8790   104.1880 h1         1 UYA       0.005700
     15 HD2        -22.2400    75.9530   104.4050 h1         1 UYA       0.021200
     16 HD3        -21.9500    74.3120   104.9610 h1         1 UYA       0.021200
     17 H10        -20.4510    76.7840   102.9700 ho         1 UYA       0.415000
@<TRIPOS>BOND
     1     1     2 1   
     2     1     7 1   
     3     1    10 1   
     4     2     3 1   
     5     2     5 1   
     6     2    11 1   
     7     3     4 1   
     8     3     9 1   
     9     5     6 1   
    10     5    12 1   
    11     5    13 1   
    12     6     7 1   
    13     6     8 1   
    14     6    14 1   
    15     7    15 1   
    16     7    16 1   
    17     8    17 1   
@<TRIPOS>SUBSTRUCTURE
     1 UYA         1 TEMP              0 ****  ****    0 ROOT
