@<TRIPOS>MOLECULE
UYC
   79    82     1     0     0
SMALL
bcc


@<TRIPOS>ATOM
      1 NB          -4.7590   -23.5860   -17.5560 ns         1 UYC      -0.475100
      2 OB          -4.4480   -25.5400   -16.3770 o          1 UYC      -0.639500
      3 ND          -7.3720   -24.6600   -20.5990 nc         1 UYC      -0.668300
      4 C1A         -7.3850   -21.6740   -20.5160 cc         1 UYC      -0.087100
      5 C1B         -4.0490   -22.4160   -17.7650 cc         1 UYC      -0.013400
      6 C1C         -3.6470   -26.1460   -19.6510 c          1 UYC       0.712500
      7 C1D         -7.7900   -25.9080   -20.7190 cd         1 UYC       0.481900
      8 C2A         -7.2730   -20.2770   -20.5130 cd         1 UYC      -0.045300
      9 C2B         -2.7850   -22.5700   -17.0450 cc         1 UYC      -0.023200
     10 C2C         -3.5180   -27.5860   -19.1990 c5         1 UYC      -0.127500
     11 C2D         -9.1060   -25.9820   -21.3360 cd         1 UYC      -0.301800
     12 C3A         -6.1260   -19.9560   -19.7720 cd         1 UYC      -0.135300
     13 C3B         -2.7760   -23.7820   -16.4520 cd         1 UYC      -0.208400
     14 C3C         -4.8920   -28.1640   -19.4630 ce         1 UYC      -0.073200
     15 C3D         -9.4690   -24.6990   -21.6070 cc         1 UYC       0.001800
     16 C4A         -5.5720   -21.1590   -19.3120 cc         1 UYC      -0.104100
     17 C4B         -4.0560   -24.4500   -16.7540 c          1 UYC       0.701700
     18 C4C         -5.7440   -27.0680   -19.9330 ce         1 UYC       0.064600
     19 C4D         -8.3800   -23.8690   -21.1210 cc         1 UYC       0.020600
     20 CAB         -1.7060   -24.4460   -15.6570 c3         1 UYC      -0.002200
     21 CBB         -0.8520   -25.3920   -16.5000 c3         1 UYC      -0.083100
     22 CBC         -6.5250   -30.1160   -19.4790 c3         1 UYC      -0.052900
     23 CGD        -11.7250   -23.4750   -24.5570 c          1 UYC       0.941600
     24 CHB         -4.4090   -21.3380   -18.4960 ce         1 UYC      -0.052200
     25 CMA         -5.6260   -18.5780   -19.4980 c3         1 UYC      -0.007800
     26 CMB         -1.7120   -21.5410   -17.0570 c3         1 UYC      -0.043900
     27 CMC         -2.3630   -28.2970   -19.8920 c3         1 UYC      -0.068100
     28 CMD         -9.8530   -27.2420   -21.6080 c3         1 UYC      -0.006900
     29 NA          -6.3510   -22.1680   -19.7760 na         1 UYC      -0.130100
     30 NC          -4.9500   -25.9430   -19.9870 ns         1 UYC      -0.469100
     31 O1D        -12.7590   -23.2270   -23.9050 o          1 UYC      -0.855300
     32 O2D        -11.5740   -23.3560   -25.7900 o          1 UYC      -0.855300
     33 HB          -5.7400   -23.7170   -17.7440 hn         1 UYC       0.345500
     34 H2C         -3.3260   -27.5640   -18.1200 hc         1 UYC       0.091700
     35 HAA1        -8.2620   -18.4110   -20.5470 hc         1 UYC       0.031200
     36 HAA2        -9.1880   -19.7030   -21.2710 hc         1 UYC       0.031200
     37 HAB1        -2.1600   -25.0050   -14.8360 hc         1 UYC       0.037200
     38 HAB2        -1.0650   -23.6930   -15.1950 hc         1 UYC       0.037200
     39 HAC1        -4.4090   -30.0850   -18.8980 ha         1 UYC       0.108000
     40 HAD1       -11.0350   -23.2760   -21.8160 hc         1 UYC       0.047200
     41 HAD2       -11.5120   -24.9220   -22.1380 hc         1 UYC       0.047200
     42 HBA1        -6.6660   -18.4820   -22.4920 hc         1 UYC       0.014700
     43 HBA2        -8.3120   -18.0420   -22.9130 hc         1 UYC       0.014700
     44 HBB1        -0.0730   -25.8520   -15.8910 hc         1 UYC       0.033700
     45 HBB2        -1.4540   -26.1930   -16.9310 hc         1 UYC       0.033700
     46 HBB3        -0.3700   -24.8590   -17.3200 hc         1 UYC       0.033700
     47 HBC3        -6.4750   -31.1640   -19.1920 hc         1 UYC       0.040700
     48 HBC2        -7.3210   -29.6510   -18.8920 hc         1 UYC       0.040700
     49 HBC1        -6.8360   -30.0760   -20.5260 hc         1 UYC       0.040700
     50 HBD2       -10.1320   -24.8980   -24.2460 hc         1 UYC       0.044200
     51 HBD1        -9.6820   -23.2450   -23.9280 hc         1 UYC       0.044200
     52 HHA         -9.1750   -21.9820   -21.6070 ha         1 UYC       0.205000
     53 HHB         -3.7320   -20.4940   -18.4580 ha         1 UYC       0.137000
     54 HHD         -7.5850   -28.0020   -20.3020 ha         1 UYC       0.134000
     55 HMA3        -6.4140   -17.9460   -19.0840 hc         1 UYC       0.028033
     56 HMA2        -4.8000   -18.5700   -18.7880 hc         1 UYC       0.028033
     57 HMA1        -5.2760   -18.0890   -20.4100 hc         1 UYC       0.028033
     58 HMB1        -0.8920   -21.8160   -16.3970 hc         1 UYC       0.044367
     59 HMB3        -1.3030   -21.4130   -18.0600 hc         1 UYC       0.044367
     60 HMB2        -2.0890   -20.5680   -16.7370 hc         1 UYC       0.044367
     61 HMC2        -2.2720   -29.3220   -19.5330 hc         1 UYC       0.036367
     62 HMC3        -2.5080   -28.3290   -20.9720 hc         1 UYC       0.036367
     63 HMC1        -1.4210   -27.7910   -19.6840 hc         1 UYC       0.036367
     64 HMD3        -9.9810   -27.8410   -20.7040 hc         1 UYC       0.025033
     65 HMD1       -10.8460   -27.0380   -22.0070 hc         1 UYC       0.025033
     66 HMD2        -9.3350   -27.8730   -22.3350 hc         1 UYC       0.025033
     67 H8          -6.1920   -23.1650   -19.7220 hn         1 UYC       0.325700
     68 HC          -5.3270   -25.0660   -20.3280 hn         1 UYC       0.371500
     69 CAA         -8.1790   -19.2970   -21.1830 c3         1 UYC       0.000900
     70 CAD        -10.7020   -24.2040   -22.2850 c3         1 UYC      -0.015200
     71 CBA         -7.6840   -18.8710   -22.5690 c3         1 UYC      -0.205400
     72 CAC         -5.2070   -29.4480   -19.2630 c2         1 UYC      -0.155200
     73 CBD        -10.4880   -23.9730   -23.7800 c3         1 UYC      -0.210400
     74 CGA         -7.7560   -20.0020   -23.6130 c          1 UYC       0.915600
     75 CHA         -8.3640   -22.5020   -21.1140 cf         1 UYC       0.095800
     76 CHD         -7.0500   -27.0660   -20.3000 cf         1 UYC      -0.234600
     77 O1A         -8.8730   -20.5500   -23.7490 o          1 UYC      -0.828300
     78 O2A         -6.7160   -20.2670   -24.2460 o          1 UYC      -0.828300
     79 OC          -2.7680   -25.3150   -19.7190 o          1 UYC      -0.621500
@<TRIPOS>BOND
     1     1     5 1   
     2     1    17 1   
     3     1    33 1   
     4     2    17 2   
     5     3     7 2   
     6     3    19 1   
     7     4     8 2   
     8     4    29 1   
     9     4    75 1   
    10     5     9 1   
    11     5    24 2   
    12     6    10 1   
    13     6    30 1   
    14     6    79 2   
    15     7    11 1   
    16     7    76 1   
    17     8    12 1   
    18     8    69 1   
    19     9    13 2   
    20     9    26 1   
    21    10    14 1   
    22    10    27 1   
    23    10    34 1   
    24    11    15 2   
    25    11    28 1   
    26    12    16 2   
    27    12    25 1   
    28    13    17 1   
    29    13    20 1   
    30    14    18 1   
    31    14    72 2   
    32    15    19 1   
    33    15    70 1   
    34    16    24 1   
    35    16    29 1   
    36    18    30 1   
    37    18    76 2   
    38    19    75 2   
    39    20    21 1   
    40    20    37 1   
    41    20    38 1   
    42    21    44 1   
    43    21    45 1   
    44    21    46 1   
    45    22    47 1   
    46    22    48 1   
    47    22    49 1   
    48    22    72 1   
    49    23    31 1   
    50    23    32 1   
    51    23    73 1   
    52    24    53 1   
    53    25    55 1   
    54    25    56 1   
    55    25    57 1   
    56    26    58 1   
    57    26    59 1   
    58    26    60 1   
    59    27    61 1   
    60    27    62 1   
    61    27    63 1   
    62    28    64 1   
    63    28    65 1   
    64    28    66 1   
    65    29    67 1   
    66    30    68 1   
    67    35    69 1   
    68    36    69 1   
    69    39    72 1   
    70    40    70 1   
    71    41    70 1   
    72    42    71 1   
    73    43    71 1   
    74    50    73 1   
    75    51    73 1   
    76    52    75 1   
    77    54    76 1   
    78    69    71 1   
    79    70    73 1   
    80    71    74 1   
    81    74    77 1   
    82    74    78 1   
@<TRIPOS>SUBSTRUCTURE
     1 UYC         1 TEMP              0 ****  ****    0 ROOT
