@<TRIPOS>MOLECULE
UYC
   79    82     1     0     0
SMALL
No Charge or Current Charge


@<TRIPOS>ATOM
      1 NB          -5.2080   -23.0280   -16.9610 ns         1 UYC      -0.408100
      2 OB          -5.3520   -24.9700   -15.7170 o          1 UYC      -0.564000
      3 ND          -7.1640   -24.6380   -20.6610 nc         1 UYC      -0.668300
      4 C1A         -7.2690   -21.6650   -20.5430 cc         1 UYC      -0.137800
      5 C1B         -4.2410   -22.1640   -17.4140 cc         1 UYC      -0.013400
      6 C1C         -3.2060   -25.9650   -20.0200 c          1 UYC       0.570000
      7 C1D         -7.5720   -25.9000   -20.7490 cd         1 UYC       0.481900
      8 C2A         -7.2670   -20.2880   -20.6080 cd         1 UYC      -0.045300
      9 C2B         -2.9770   -22.6720   -16.9790 cc         1 UYC      -0.023200
     10 C2C         -3.0360   -27.4800   -19.7660 c5         1 UYC      -0.127500
     11 C2D         -8.8850   -26.0100   -21.3010 cd         1 UYC      -0.301800
     12 C3A         -6.2380   -19.8220   -19.7360 cd         1 UYC      -0.135300
     13 C3B         -3.2510   -23.8300   -16.2700 cd         1 UYC      -0.208400
     14 C3C         -4.4580   -28.0490   -19.6400 ce         1 UYC      -0.073200
     15 C3D         -9.2790   -24.7240   -21.5590 cc         1 UYC       0.001800
     16 C4A         -5.6260   -20.9000   -19.1420 cc         1 UYC      -0.154800
     17 C4B         -4.7120   -24.0750   -16.2480 c          1 UYC       0.559200
     18 C4C         -5.3640   -26.9620   -20.0600 ce         1 UYC       0.064600
     19 C4D         -8.2000   -23.8760   -21.1560 cc         1 UYC       0.020600
     20 CAB         -2.3040   -24.7610   -15.5510 c3         1 UYC      -0.002200
     21 CBB         -1.9540   -26.0040   -16.3860 c3         1 UYC      -0.083100
     22 CBC         -6.1290   -29.9320   -19.0060 c3         1 UYC      -0.052900
     23 CGD        -11.9540   -23.6250   -24.1570 c          1 UYC       0.731000
     24 CHB         -4.5450   -20.9420   -18.1570 ce         1 UYC      -0.102200
     25 CMA         -5.8950   -18.3700   -19.4960 c3         1 UYC      -0.007800
     26 CMB         -1.6520   -22.0180   -17.2630 c3         1 UYC      -0.043900
     27 CMC         -2.2410   -28.1380   -20.9170 c3         1 UYC      -0.068100
     28 CMD         -9.6510   -27.2860   -21.5510 c3         1 UYC      -0.006900
     29 NA          -6.2710   -22.0210   -19.6500 na         1 UYC      -0.079000
     30 NC          -4.5500   -25.8490   -20.1720 ns         1 UYC      -0.402100
     31 O1D        -12.2520   -22.4410   -24.1540 o          1 UYC      -0.750000
     32 O2D        -12.7250   -24.5140   -24.4840 o          1 UYC      -0.750000
     33 HB          -6.2060   -22.8870   -17.0550 hn         1 UYC       0.345500
     34 H2C         -2.4380   -27.6140   -18.8590 hc         1 UYC       0.091700
     35 HAA1        -8.4400   -18.5050   -20.8310 hc         1 UYC       0.031200
     36 HAA2        -9.1320   -19.8720   -21.6390 hc         1 UYC       0.031200
     37 HAB1        -2.7450   -25.0850   -14.6010 hc         1 UYC       0.037200
     38 HAB2        -1.3780   -24.2340   -15.2930 hc         1 UYC       0.037200
     39 HAC1        -3.9530   -29.9640   -18.9310 ha         1 UYC       0.158000
     40 HAD1       -10.9000   -23.3130   -21.6270 hc         1 UYC       0.047200
     41 HAD2       -11.3820   -24.9710   -21.8850 hc         1 UYC       0.047200
     42 HBA1        -6.6230   -18.3670   -22.4920 hc         1 UYC       0.014700
     43 HBA2        -8.3130   -18.2420   -23.1940 hc         1 UYC       0.014700
     44 HBB1        -1.2760   -26.6610   -15.8300 hc         1 UYC       0.033700
     45 HBB2        -2.8600   -26.5710   -16.6310 hc         1 UYC       0.033700
     46 HBB3        -1.4610   -25.7120   -17.3210 hc         1 UYC       0.033700
     47 HBC3        -6.0380   -30.8840   -18.4690 hc         1 UYC       0.040700
     48 HBC2        -6.7900   -29.2880   -18.4120 hc         1 UYC       0.040700
     49 HBC1        -6.6150   -30.1450   -19.9650 hc         1 UYC       0.040700
     50 HBD2       -10.2590   -24.9840   -24.0890 hc         1 UYC       0.044200
     51 HBD1        -9.8440   -23.2140   -23.8270 hc         1 UYC       0.044200
     52 HHA         -8.9130   -22.0290   -21.7910 ha         1 UYC       0.255000
     53 HHB         -3.8320   -20.1180   -18.1230 ha         1 UYC       0.187000
     54 HHD         -7.2170   -27.9430   -20.2650 ha         1 UYC       0.184000
     55 HMA3        -6.7940   -17.7760   -19.2950 hc         1 UYC       0.028033
     56 HMA2        -5.2290   -18.2450   -18.6350 hc         1 UYC       0.028033
     57 HMA1        -5.3930   -17.9370   -20.3690 hc         1 UYC       0.028033
     58 HMB1        -0.8370   -22.7500   -17.2420 hc         1 UYC       0.044367
     59 HMB3        -1.6490   -21.5480   -18.2540 hc         1 UYC       0.044367
     60 HMB2        -1.4340   -21.2440   -16.5180 hc         1 UYC       0.044367
     61 HMC2        -2.1090   -29.2120   -20.7430 hc         1 UYC       0.036367
     62 HMC3        -2.7580   -28.0150   -21.8770 hc         1 UYC       0.036367
     63 HMC1        -1.2430   -27.6910   -21.0140 hc         1 UYC       0.036367
     64 HMD3       -10.1310   -27.6410   -20.6320 hc         1 UYC       0.025033
     65 HMD1       -10.4320   -27.1480   -22.3070 hc         1 UYC       0.025033
     66 HMD2        -8.9880   -28.0820   -21.9130 hc         1 UYC       0.025033
     67 H8          -6.0500   -22.9840   -19.4180 hn         1 UYC       0.376000
     68 HC          -4.9820   -24.9650   -20.4110 hn         1 UYC       0.371500
     69 CAA         -8.1740   -19.3860   -21.4260 c3         1 UYC       0.000900
     70 CAD        -10.5970   -24.2440   -22.1230 c3         1 UYC      -0.015200
     71 CBA         -7.5480   -18.8950   -22.7550 c3         1 UYC      -0.205400
     72 CAC         -4.7700   -29.2950   -19.2060 c2         1 UYC      -0.205200
     73 CBD        -10.5610   -24.0240   -23.6530 c3         1 UYC      -0.210400
     74 CGA         -7.2570   -20.0720   -23.7020 c          1 UYC       0.705000
     75 CHA         -8.1180   -22.5050   -21.2220 cf         1 UYC       0.045800
     76 CHD         -6.6980   -26.9970   -20.3330 cf         1 UYC      -0.284600
     77 O1A         -8.1700   -20.4790   -24.4030 o          1 UYC      -0.723000
     78 O2A         -6.1330   -20.5500   -23.7090 o          1 UYC      -0.723000
     79 OC          -2.4060   -25.0440   -19.9720 o          1 UYC      -0.546000
@<TRIPOS>BOND
     1     1     5 1   
     2     1    17 1   
     3     1    33 1   
     4     2    17 2   
     5     3     7 2   
     6     3    19 1   
     7     4     8 2   
     8     4    29 1   
     9     4    75 1   
    10     5     9 1   
    11     5    24 2   
    12     6    10 1   
    13     6    30 1   
    14     6    79 2   
    15     7    11 1   
    16     7    76 1   
    17     8    12 1   
    18     8    69 1   
    19     9    13 2   
    20     9    26 1   
    21    10    14 1   
    22    10    27 1   
    23    10    34 1   
    24    11    15 2   
    25    11    28 1   
    26    12    16 2   
    27    12    25 1   
    28    13    17 1   
    29    13    20 1   
    30    14    18 1   
    31    14    72 2   
    32    15    19 1   
    33    15    70 1   
    34    16    24 1   
    35    16    29 1   
    36    18    30 1   
    37    18    76 2   
    38    19    75 2   
    39    20    21 1   
    40    20    37 1   
    41    20    38 1   
    42    21    44 1   
    43    21    45 1   
    44    21    46 1   
    45    22    47 1   
    46    22    48 1   
    47    22    49 1   
    48    22    72 1   
    49    23    31 1   
    50    23    32 1   
    51    23    73 1   
    52    24    53 1   
    53    25    55 1   
    54    25    56 1   
    55    25    57 1   
    56    26    58 1   
    57    26    59 1   
    58    26    60 1   
    59    27    61 1   
    60    27    62 1   
    61    27    63 1   
    62    28    64 1   
    63    28    65 1   
    64    28    66 1   
    65    29    67 1   
    66    30    68 1   
    67    35    69 1   
    68    36    69 1   
    69    39    72 1   
    70    40    70 1   
    71    41    70 1   
    72    42    71 1   
    73    43    71 1   
    74    50    73 1   
    75    51    73 1   
    76    52    75 1   
    77    54    76 1   
    78    69    71 1   
    79    70    73 1   
    80    71    74 1   
    81    74    77 1   
    82    74    78 1   
@<TRIPOS>SUBSTRUCTURE
     1 UYC         1 TEMP              0 ****  ****    0 ROOT
