@<TRIPOS>MOLECULE
UYD
   56    59     1     0     0
SMALL
bcc


@<TRIPOS>ATOM
      1 C10        -39.5130    23.4090   -67.1930 c3         1 UYD       0.298800
      2 C11        -41.0200    23.6160   -67.2940 c3         1 UYD       0.127400
      3 C13        -38.8950    23.1760   -68.5610 ca         1 UYD      -0.087300
      4 C14        -39.1950    22.0030   -69.2510 ca         1 UYD      -0.116000
      5 C15        -38.6660    21.7560   -70.5080 ca         1 UYD      -0.127500
      6 C16        -37.8210    22.6860   -71.1020 ca         1 UYD      -0.127000
      7 C17        -37.5170    23.8580   -70.4240 ca         1 UYD      -0.127500
      8 C18        -38.0510    24.1010   -69.1640 ca         1 UYD      -0.116000
      9 C20        -36.1830    25.6290   -64.7520 ca         1 UYD       0.532800
     10 C23        -34.2940    24.9070   -63.8160 cc         1 UYD       0.400800
     11 C01        -34.8760    17.4850   -65.1340 c3         1 UYD       0.045600
     12 C04        -35.7240    20.8430   -65.3040 cc         1 UYD       0.568200
     13 C06        -35.9900    23.2860   -65.0660 ca         1 UYD       0.825200
     14 C08        -37.7610    24.5260   -65.8430 ca         1 UYD       0.976900
     15 C24        -35.4310    24.4710   -64.5380 ca         1 UYD      -0.570500
     16 C25        -36.7670    20.3970   -66.1290 cc         1 UYD      -0.300300
     17 C26        -36.6210    19.0200   -66.1630 cd         1 UYD      -0.064600
     18 C27        -37.4740    18.0080   -66.8910 c3         1 UYD       0.022300
     19 C28        -36.6310    17.1350   -67.8300 c3         1 UYD      -0.086100
     20 C29        -38.2470    17.1350   -65.8920 c3         1 UYD      -0.086100
     21 C30        -38.4950    18.7590   -67.7490 c3         1 UYD      -0.086100
     22 N02        -35.5510    18.7380   -65.3860 na         1 UYD       0.117400
     23 N03        -34.9930    19.8380   -64.8670 nd         1 UYD      -0.590800
     24 N07        -37.1410    23.3360   -65.7130 nb         1 UYD      -0.860000
     25 N09        -38.9470    24.5270   -66.4860 nu         1 UYD      -0.861900
     26 N19        -37.3440    25.7080   -65.3940 nb         1 UYD      -0.834000
     27 N21        -35.4890    26.6270   -64.1780 na         1 UYD      -0.120800
     28 N22        -34.3450    26.1970   -63.6100 nd         1 UYD      -0.532100
     29 O12        -41.2610    24.7890   -68.0320 oh         1 UYD      -0.596800
     30 H1         -39.3660    22.5100   -66.5890 h1         1 UYD       0.084700
     31 H2         -41.4660    22.7330   -67.7670 h1         1 UYD       0.031700
     32 H3         -41.4280    23.6820   -66.2780 h1         1 UYD       0.031700
     33 H4         -39.8530    21.2680   -68.8010 ha         1 UYD       0.128000
     34 H5         -38.9110    20.8360   -71.0230 ha         1 UYD       0.128000
     35 H6         -37.4030    22.4970   -72.0820 ha         1 UYD       0.129000
     36 H7         -36.8600    24.5900   -70.8760 ha         1 UYD       0.128000
     37 H8         -37.7950    25.0210   -68.6540 ha         1 UYD       0.128000
     38 H9         -33.4570    24.3300   -63.4480 h4         1 UYD       0.044800
     39 H10        -34.3830    17.5540   -64.1680 h1         1 UYD       0.055033
     40 H11        -35.5800    16.6610   -65.0970 h1         1 UYD       0.055033
     41 H12        -34.1270    17.2770   -65.8980 h1         1 UYD       0.055033
     42 H13        -37.5090    20.9950   -66.6240 ha         1 UYD       0.186000
     43 H14        -35.9540    16.4630   -67.3040 hc         1 UYD       0.039144
     44 H15        -37.2910    16.5120   -68.4360 hc         1 UYD       0.039144
     45 H16        -36.0360    17.7490   -68.5080 hc         1 UYD       0.039144
     46 H17        -38.8710    17.7480   -65.2400 hc         1 UYD       0.039144
     47 H18        -38.9000    16.4440   -66.4290 hc         1 UYD       0.039144
     48 H19        -37.5940    16.5350   -65.2580 hc         1 UYD       0.039144
     49 H20        -39.1580    19.3780   -67.1430 hc         1 UYD       0.039144
     50 H21        -38.0070    19.4000   -68.4840 hc         1 UYD       0.039144
     51 H22        -39.1160    18.0440   -68.2900 hc         1 UYD       0.039144
     52 H23        -34.4880    22.1420   -64.3710 hn         1 UYD       0.459800
     53 H24        -39.3550    25.4340   -66.6500 hn         1 UYD       0.459800
     54 H25        -35.7370    27.6020   -64.1370 hn         1 UYD       0.331700
     55 H26        -42.1900    25.0200   -67.9430 ho         1 UYD       0.407000
     56 N05        -35.3450    22.1150   -64.9020 nu         1 UYD      -0.820600
@<TRIPOS>BOND
     1     1     2 1   
     2     1     3 1   
     3     1    25 1   
     4     1    30 1   
     5     2    29 1   
     6     2    31 1   
     7     2    32 1   
     8     3     4 ar  
     9     3     8 ar  
    10     4     5 ar  
    11     4    33 1   
    12     5     6 ar  
    13     5    34 1   
    14     6     7 ar  
    15     6    35 1   
    16     7     8 ar  
    17     7    36 1   
    18     8    37 1   
    19     9    15 ar  
    20     9    26 ar  
    21     9    27 1   
    22    10    15 1   
    23    10    28 2   
    24    10    38 1   
    25    11    22 1   
    26    11    39 1   
    27    11    40 1   
    28    11    41 1   
    29    12    16 1   
    30    12    23 2   
    31    12    56 1   
    32    13    15 ar  
    33    13    24 ar  
    34    13    56 1   
    35    14    24 ar  
    36    14    25 1   
    37    14    26 ar  
    38    16    17 2   
    39    16    42 1   
    40    17    18 1   
    41    17    22 1   
    42    18    19 1   
    43    18    20 1   
    44    18    21 1   
    45    19    43 1   
    46    19    44 1   
    47    19    45 1   
    48    20    46 1   
    49    20    47 1   
    50    20    48 1   
    51    21    49 1   
    52    21    50 1   
    53    21    51 1   
    54    22    23 1   
    55    25    53 1   
    56    27    28 1   
    57    27    54 1   
    58    29    55 1   
    59    52    56 1   
@<TRIPOS>SUBSTRUCTURE
     1 UYD         1 TEMP              0 ****  ****    0 ROOT
