@<TRIPOS>MOLECULE
UYD
   56    59     1     0     0
SMALL
No Charge or Current Charge


@<TRIPOS>ATOM
      1 C10        -39.8150    23.5660   -67.2360 c3         1 UYD       0.298800
      2 C11        -41.2890    23.9980   -67.5260 c3         1 UYD       0.150600
      3 C13        -39.0250    23.3280   -68.5320 ca         1 UYD      -0.087300
      4 C14        -38.9670    22.0280   -69.0750 ca         1 UYD      -0.098000
      5 C15        -38.2490    21.7760   -70.2570 ca         1 UYD      -0.109500
      6 C16        -37.5860    22.8250   -70.9140 ca         1 UYD      -0.109000
      7 C17        -37.6470    24.1270   -70.3900 ca         1 UYD      -0.109500
      8 C18        -38.3650    24.3790   -69.2080 ca         1 UYD      -0.098000
      9 C20        -36.1990    25.5960   -64.7970 ca         1 UYD       0.204500
     10 C23        -34.2800    24.7060   -64.0360 cc         1 UYD       0.400800
     11 C01        -34.6710    17.3990   -65.1480 c3         1 UYD       0.074900
     12 C04        -35.6540    20.7470   -65.3120 cc         1 UYD       0.502900
     13 C06        -36.0980    23.2400   -65.1380 ca         1 UYD       0.496900
     14 C08        -37.9040    24.4820   -65.7880 ca         1 UYD       0.450900
     15 C24        -35.5300    24.4190   -64.6760 ca         1 UYD      -0.439900
     16 C25        -36.7160    20.2570   -66.0690 cc         1 UYD      -0.217000
     17 C26        -36.5550    18.9000   -66.1410 cd         1 UYD      -0.115300
     18 C27        -37.4350    17.8600   -66.8410 c3         1 UYD       0.022300
     19 C28        -36.5970    16.9340   -67.7630 c3         1 UYD      -0.086100
     20 C29        -38.1970    17.0160   -65.7870 c3         1 UYD      -0.086100
     21 C30        -38.4870    18.5740   -67.7310 c3         1 UYD      -0.086100
     22 N02        -35.3640    18.6750   -65.4020 na         1 UYD       0.138800
     23 N03        -34.8140    19.8490   -64.8950 nd         1 UYD      -0.590800
     24 N07        -37.3150    23.2690   -65.7050 nb         1 UYD      -0.334000
     25 N09        -39.1540    24.5610   -66.3670 nu         1 UYD      -0.917100
     26 N19        -37.4140    25.6600   -65.3590 nb         1 UYD      -0.308000
     27 N21        -35.3680    26.5450   -64.2450 na         1 UYD      -0.171100
     28 N22        -34.1630    26.0130   -63.7630 nd         1 UYD      -0.532100
     29 O12        -41.3790    25.3680   -67.9800 oh         1 UYD      -0.659000
     30 H1         -39.8690    22.6090   -66.6970 h1         1 UYD       0.084700
     31 H2         -41.7170    23.3160   -68.2730 h1         1 UYD       0.031700
     32 H3         -41.8710    23.8770   -66.6030 h1         1 UYD       0.031700
     33 H4         -39.4850    21.2100   -68.5810 ha         1 UYD       0.110000
     34 H5         -38.2100    20.7690   -70.6650 ha         1 UYD       0.110000
     35 H6         -37.0310    22.6310   -71.8290 ha         1 UYD       0.111000
     36 H7         -37.1390    24.9420   -70.9000 ha         1 UYD       0.110000
     37 H8         -38.4070    25.3930   -68.8190 ha         1 UYD       0.110000
     38 H9         -33.4570    24.0610   -63.7540 h4         1 UYD       0.044800
     39 H10        -33.9410    17.5270   -64.3400 h1         1 UYD       0.055033
     40 H11        -35.3870    16.6260   -64.8510 h1         1 UYD       0.055033
     41 H12        -34.1410    17.0850   -66.0550 h1         1 UYD       0.055033
     42 H13        -37.5050    20.8500   -66.5090 ha         1 UYD       0.168000
     43 H14        -35.9650    16.2480   -67.1910 hc         1 UYD       0.039144
     44 H15        -37.2490    16.3140   -68.3910 hc         1 UYD       0.039144
     45 H16        -35.9540    17.5250   -68.4270 hc         1 UYD       0.039144
     46 H17        -38.7910    17.6630   -65.1300 hc         1 UYD       0.039144
     47 H18        -38.8810    16.3090   -66.2720 hc         1 UYD       0.039144
     48 H19        -37.5150    16.4370   -65.1580 hc         1 UYD       0.039144
     49 H20        -39.1460    19.2110   -67.1300 hc         1 UYD       0.039144
     50 H21        -37.9950    19.1970   -68.4870 hc         1 UYD       0.039144
     51 H22        -39.1210    17.8480   -68.2560 hc         1 UYD       0.039144
     52 H23        -34.5540    22.1250   -64.4830 hn         1 UYD       0.515000
     53 H24        -39.5240    25.5060   -66.4490 hn         1 UYD       0.515000
     54 H25        -35.5790    27.5390   -64.1790 hn         1 UYD       0.382000
     55 H26        -42.3270    25.5450   -68.1720 ho         1 UYD       0.446000
     56 N05        -35.4240    22.0440   -64.9910 nu         1 UYD      -0.875800
@<TRIPOS>BOND
     1     1     2 1   
     2     1     3 1   
     3     1    25 1   
     4     1    30 1   
     5     2    29 1   
     6     2    31 1   
     7     2    32 1   
     8     3     4 ar  
     9     3     8 ar  
    10     4     5 ar  
    11     4    33 1   
    12     5     6 ar  
    13     5    34 1   
    14     6     7 ar  
    15     6    35 1   
    16     7     8 ar  
    17     7    36 1   
    18     8    37 1   
    19     9    15 ar  
    20     9    26 ar  
    21     9    27 1   
    22    10    15 1   
    23    10    28 2   
    24    10    38 1   
    25    11    22 1   
    26    11    39 1   
    27    11    40 1   
    28    11    41 1   
    29    12    16 1   
    30    12    23 2   
    31    12    56 1   
    32    13    15 ar  
    33    13    24 ar  
    34    13    56 1   
    35    14    24 ar  
    36    14    25 1   
    37    14    26 ar  
    38    16    17 2   
    39    16    42 1   
    40    17    18 1   
    41    17    22 1   
    42    18    19 1   
    43    18    20 1   
    44    18    21 1   
    45    19    43 1   
    46    19    44 1   
    47    19    45 1   
    48    20    46 1   
    49    20    47 1   
    50    20    48 1   
    51    21    49 1   
    52    21    50 1   
    53    21    51 1   
    54    22    23 1   
    55    25    53 1   
    56    27    28 1   
    57    27    54 1   
    58    29    55 1   
    59    52    56 1   
@<TRIPOS>SUBSTRUCTURE
     1 UYD         1 TEMP              0 ****  ****    0 ROOT
