@<TRIPOS>MOLECULE
UYF
   40    42     1     0     0
SMALL
No Charge or Current Charge


@<TRIPOS>ATOM
      1 C2         -23.6570     0.1360    10.3380 cc         1 UYF       0.109100
      2 C3         -21.2900    -0.3850    10.1540 c6         1 UYF       0.170300
      3 C7         -21.3230    -1.8680    10.6180 c6         1 UYF      -0.089900
      4 C8         -25.9230     0.2850    10.5880 cd         1 UYF       0.060700
      5 C9         -24.6860     1.2480    12.4190 c5         1 UYF      -0.026100
      6 C10        -25.9280    -0.3970     9.3890 cc         1 UYF      -0.421500
      7 C11        -18.7390    -0.5200     9.9640 c6         1 UYF      -0.072900
      8 C12        -20.1240    -2.6660    10.0440 c6         1 UYF      -0.072900
      9 C13        -27.0650     0.7370    11.4440 c5         1 UYF       0.191600
     10 C14        -26.2430     1.1120    12.7930 c5         1 UYF       0.127000
     11 C16        -18.7770    -2.0000    10.4180 c6         1 UYF      -0.080400
     12 O17        -27.8170     1.8460    10.9230 oh         1 UYF      -0.617000
     13 C22        -26.9860    -2.7340     8.3130 c3         1 UYF      -0.346100
     14 O1         -22.3680     0.3620    10.7480 os         1 UYF      -0.317100
     15 C4         -24.6960     0.5670    11.1010 cd         1 UYF      -0.207300
     16 S5         -24.2460    -0.6370     8.8550 ss         1 UYF       0.244000
     17 C6         -19.9410     0.2720    10.5400 c6         1 UYF      -0.089900
     18 S15        -27.3070    -0.9760     8.4180 sy         1 UYF       1.139500
     19 F18        -26.7100     2.2890    13.3820 f          1 UYF      -0.114000
     20 F19        -26.4070     0.0970    13.7350 f          1 UYF      -0.114000
     21 O20        -28.5470    -0.7940     9.1810 o          1 UYF      -0.528000
     22 O21        -27.1520    -0.4410     7.0590 o          1 UYF      -0.528000
     23 H23        -21.3910    -0.3410     9.0600 h1         1 UYF       0.052700
     24 H27        -22.2600    -2.3470    10.3060 hc         1 UYF       0.058700
     25 H26        -21.3020    -1.9110    11.7160 hc         1 UYF       0.058700
     26 H28        -24.0340     0.7620    13.1540 hc         1 UYF       0.085200
     27 H29        -24.3750     2.2950    12.3350 hc         1 UYF       0.085200
     28 H31        -17.7970    -0.0560    10.2860 hc         1 UYF       0.047700
     29 H30        -18.7530    -0.4690     8.8670 hc         1 UYF       0.047700
     30 H32        -20.1480    -3.6980    10.4210 hc         1 UYF       0.047700
     31 H33        -20.2140    -2.7320     8.9500 hc         1 UYF       0.047700
     32 H34        -27.7260    -0.1210    11.6280 h1         1 UYF       0.075700
     33 H35        -18.6250    -2.0590    11.5050 hc         1 UYF       0.046700
     34 H36        -17.9470    -2.5530     9.9570 hc         1 UYF       0.046700
     35 H37        -28.4680     2.0950    11.6140 ho         1 UYF       0.461000
     36 H39        -26.9480    -3.1330     9.3310 h1         1 UYF       0.101700
     37 H38        -27.8020    -3.1940     7.7460 h1         1 UYF       0.101700
     38 H40        -26.0300    -2.8820     7.8010 h1         1 UYF       0.101700
     39 H24        -19.9140     1.3050    10.1690 hc         1 UYF       0.058700
     40 H25        -19.8560     0.3280    11.6340 hc         1 UYF       0.058700
@<TRIPOS>BOND
     1     1    14 1   
     2     1    15 2   
     3     1    16 1   
     4     2     3 1   
     5     2    14 1   
     6     2    17 1   
     7     2    23 1   
     8     3     8 1   
     9     3    24 1   
    10     3    25 1   
    11     4     6 2   
    12     4     9 1   
    13     4    15 1   
    14     5    10 1   
    15     5    15 1   
    16     5    26 1   
    17     5    27 1   
    18     6    16 1   
    19     6    18 1   
    20     7    11 1   
    21     7    17 1   
    22     7    28 1   
    23     7    29 1   
    24     8    11 1   
    25     8    30 1   
    26     8    31 1   
    27     9    10 1   
    28     9    12 1   
    29     9    32 1   
    30    10    19 1   
    31    10    20 1   
    32    11    33 1   
    33    11    34 1   
    34    12    35 1   
    35    13    18 1   
    36    13    36 1   
    37    13    37 1   
    38    13    38 1   
    39    17    39 1   
    40    17    40 1   
    41    18    21 2   
    42    18    22 2   
@<TRIPOS>SUBSTRUCTURE
     1 UYF         1 TEMP              0 ****  ****    0 ROOT
