@<TRIPOS>MOLECULE
UYF
   40    42     1     0     0
SMALL
abcg2


@<TRIPOS>ATOM
      1 C2         -23.5880    -0.0980    10.6130 cc         1 UYF       0.109100
      2 C3         -21.2430    -0.5420    10.2780 c6         1 UYF       0.170300
      3 C7         -21.0820    -2.0320    10.5410 c6         1 UYF      -0.089900
      4 C8         -25.8880     0.1960    10.5370 cd         1 UYF       0.060700
      5 C9         -24.9470     1.0390    12.5950 c5         1 UYF      -0.026100
      6 C10        -25.7090    -0.4230     9.3290 cc         1 UYF      -0.421500
      7 C11        -18.7830    -0.2970     9.8950 c6         1 UYF      -0.072900
      8 C12        -19.8720    -2.5720     9.7710 c6         1 UYF      -0.072900
      9 C13        -27.0640     0.7570    11.2850 c5         1 UYF       0.191600
     10 C14        -26.4650     0.8670    12.7190 c5         1 UYF       0.127000
     11 C16        -18.5990    -1.7990    10.1210 c6         1 UYF      -0.080400
     12 O17        -27.3730     2.0380    10.7610 oh         1 UYF      -0.617000
     13 C22        -27.5480    -2.4770     8.9090 c3         1 UYF      -0.346100
     14 O1         -22.3440     0.0060    11.0630 os         1 UYF      -0.317100
     15 C4         -24.6970     0.3780    11.2700 cd         1 UYF      -0.207300
     16 S5         -24.0280    -0.8000     9.0690 ss         1 UYF       0.244000
     17 C6         -20.0000     0.2400    10.6560 c6         1 UYF      -0.089900
     18 S15        -26.9110    -0.9770     8.2030 sy         1 UYF       1.139500
     19 F18        -27.0620     1.8630    13.4380 f          1 UYF      -0.114000
     20 F19        -26.7480    -0.3030    13.3920 f          1 UYF      -0.114000
     21 O20        -27.9880    -0.0080     8.1620 o          1 UYF      -0.528000
     22 O21        -26.2280    -1.3100     6.9650 o          1 UYF      -0.528000
     23 H23        -21.4740    -0.3630     9.2220 h1         1 UYF       0.052700
     24 H27        -21.9870    -2.5710    10.2560 hc         1 UYF       0.058700
     25 H26        -20.9350    -2.1750    11.6160 hc         1 UYF       0.058700
     26 H28        -24.4350     0.5710    13.4350 hc         1 UYF       0.085200
     27 H29        -24.6980     2.1020    12.5840 hc         1 UYF       0.085200
     28 H31        -17.8900     0.2490    10.2070 hc         1 UYF       0.047700
     29 H30        -18.9150    -0.1050     8.8250 hc         1 UYF       0.047700
     30 H32        -19.7470    -3.6350     9.9890 hc         1 UYF       0.047700
     31 H33        -20.0640    -2.4890     8.6960 hc         1 UYF       0.047700
     32 H34        -27.9390     0.1040    11.2960 h1         1 UYF       0.075700
     33 H35        -18.3460    -1.9780    11.1710 hc         1 UYF       0.046700
     34 H36        -17.7610    -2.1670     9.5240 hc         1 UYF       0.046700
     35 H37        -28.1510     2.3760    11.2260 ho         1 UYF       0.461000
     36 H39        -27.9860    -2.2410     9.8770 h1         1 UYF       0.101700
     37 H38        -28.3040    -2.8540     8.2210 h1         1 UYF       0.101700
     38 H40        -26.7280    -3.1850     9.0120 h1         1 UYF       0.101700
     39 H24        -20.1550     1.2990    10.4410 hc         1 UYF       0.058700
     40 H25        -19.8400     0.1390    11.7340 hc         1 UYF       0.058700
@<TRIPOS>BOND
     1     1    14 1   
     2     1    15 2   
     3     1    16 1   
     4     2     3 1   
     5     2    14 1   
     6     2    17 1   
     7     2    23 1   
     8     3     8 1   
     9     3    24 1   
    10     3    25 1   
    11     4     6 2   
    12     4     9 1   
    13     4    15 1   
    14     5    10 1   
    15     5    15 1   
    16     5    26 1   
    17     5    27 1   
    18     6    16 1   
    19     6    18 1   
    20     7    11 1   
    21     7    17 1   
    22     7    28 1   
    23     7    29 1   
    24     8    11 1   
    25     8    30 1   
    26     8    31 1   
    27     9    10 1   
    28     9    12 1   
    29     9    32 1   
    30    10    19 1   
    31    10    20 1   
    32    11    33 1   
    33    11    34 1   
    34    12    35 1   
    35    13    18 1   
    36    13    36 1   
    37    13    37 1   
    38    13    38 1   
    39    17    39 1   
    40    17    40 1   
    41    18    21 2   
    42    18    22 2   
@<TRIPOS>SUBSTRUCTURE
     1 UYF         1 TEMP              0 ****  ****    0 ROOT
