@<TRIPOS>MOLECULE
UYG
   40    42     1     0     0
SMALL
No Charge or Current Charge


@<TRIPOS>ATOM
      1 C10         11.9530   -13.3270     8.7500 ca         1 UYG      -0.127000
      2 C11         19.8920   -15.2590     9.1890 c6         1 UYG       0.040700
      3 C12         20.8170   -14.3450     8.3150 c3         1 UYG      -0.072700
      4 C13         22.1130   -15.0650     7.8730 c3         1 UYG      -0.092100
      5 N           14.0620   -12.1490     8.1060 na         1 UYG      -0.221700
      6 C           18.1730   -16.6590     7.9360 c          1 UYG       0.564000
      7 O           17.9580   -17.5930     7.1780 o          1 UYG      -0.561000
      8 C1          17.0410   -15.7160     8.4370 c6         1 UYG       0.037700
      9 C15         18.7370   -14.4260     9.8300 c          1 UYG       0.565000
     10 C2          16.4430   -14.9280     7.2380 c3         1 UYG      -0.010200
     11 C3          15.3060   -14.0150     7.6190 cc         1 UYG      -0.160400
     12 C4          15.3230   -12.6240     7.6710 cd         1 UYG      -0.149100
     13 C5          13.2840   -13.2730     8.3150 ca         1 UYG      -0.048200
     14 C6          13.9900   -14.4090     8.0330 ca         1 UYG      -0.097800
     15 C7          13.4200   -15.6850     8.1580 ca         1 UYG      -0.063000
     16 C8          12.0810   -15.7700     8.5940 ca         1 UYG      -0.137000
     17 C9          11.3490   -14.5950     8.8900 ca         1 UYG      -0.090000
     18 N1          17.4470   -14.7880     9.5220 ns         1 UYG      -0.495900
     19 N2          19.4400   -16.4530     8.4310 ns         1 UYG      -0.498900
     20 O1          18.9450   -13.5190    10.6220 o          1 UYG      -0.564000
     21 H1          11.3980   -12.4190     8.9720 ha         1 UYG       0.114000
     22 H2          20.4830   -15.6220    10.0420 h1         1 UYG       0.079700
     23 H3          21.1410   -13.5100     8.9500 hc         1 UYG       0.074700
     24 H4          22.6400   -15.4830     8.7400 hc         1 UYG       0.037867
     25 H5          21.8950   -15.8840     7.1770 hc         1 UYG       0.037867
     26 H6          22.7930   -14.3660     7.3720 hc         1 UYG       0.037867
     27 H7          13.7840   -11.1810     8.2390 hn         1 UYG       0.353000
     28 H8          16.2630   -16.3770     8.8420 h1         1 UYG       0.085700
     29 H9          19.2410   -13.1130     7.4130 hc         1 UYG       0.037867
     30 H10         20.7850   -13.0460     6.5530 hc         1 UYG       0.037867
     31 H11         19.7550   -14.4820     6.3980 hc         1 UYG       0.037867
     32 H12         16.0870   -15.6330     6.4760 hc         1 UYG       0.064700
     33 H13         17.2290   -14.3400     6.7500 hc         1 UYG       0.064700
     34 H14         16.1390   -11.9430     7.4390 h4         1 UYG       0.215000
     35 H15         13.9890   -16.5820     7.9240 ha         1 UYG       0.118000
     36 H16         11.6080   -16.7440     8.7030 ha         1 UYG       0.113000
     37 H17         10.3170   -14.6700     9.2250 ha         1 UYG       0.111000
     38 H18         16.7230   -14.2380     9.9700 hn         1 UYG       0.330500
     39 H19         20.1400   -17.1180     8.1230 hn         1 UYG       0.322500
     40 C14         20.1030   -13.7110     7.0960 c3         1 UYG      -0.092100
@<TRIPOS>BOND
     1     1    13 ar  
     2     1    17 ar  
     3     1    21 1   
     4     2     3 1   
     5     2     9 1   
     6     2    19 1   
     7     2    22 1   
     8     3     4 1   
     9     3    23 1   
    10     3    40 1   
    11     4    24 1   
    12     4    25 1   
    13     4    26 1   
    14     5    12 1   
    15     5    13 1   
    16     5    27 1   
    17     6     7 2   
    18     6     8 1   
    19     6    19 1   
    20     8    10 1   
    21     8    18 1   
    22     8    28 1   
    23     9    18 1   
    24     9    20 2   
    25    10    11 1   
    26    10    32 1   
    27    10    33 1   
    28    11    12 2   
    29    11    14 1   
    30    12    34 1   
    31    13    14 ar  
    32    14    15 ar  
    33    15    16 ar  
    34    15    35 1   
    35    16    17 ar  
    36    16    36 1   
    37    17    37 1   
    38    18    38 1   
    39    19    39 1   
    40    29    40 1   
    41    30    40 1   
    42    31    40 1   
@<TRIPOS>SUBSTRUCTURE
     1 UYG         1 TEMP              0 ****  ****    0 ROOT
