@<TRIPOS>MOLECULE
UYG
   40    42     1     0     0
SMALL
bcc


@<TRIPOS>ATOM
      1 C10         11.9540   -13.3230     8.7050 ca         1 UYG      -0.145000
      2 C11         19.9200   -15.2280     9.1670 c6         1 UYG       0.040700
      3 C12         20.8010   -14.3070     8.2970 c3         1 UYG      -0.072700
      4 C13         22.0330   -15.0490     7.7910 c3         1 UYG      -0.092100
      5 N           14.1520   -12.2480     8.1620 na         1 UYG      -0.171400
      6 C           18.1750   -16.6380     8.0580 c          1 UYG       0.706500
      7 O           17.8750   -17.6080     7.3780 o          1 UYG      -0.636500
      8 C1          17.0990   -15.6740     8.5040 c6         1 UYG       0.037700
      9 C15         18.8160   -14.4300     9.8280 c          1 UYG       0.707500
     10 C2          16.4670   -14.9790     7.2800 c3         1 UYG      -0.010200
     11 C3          15.3410   -14.0800     7.6570 cc         1 UYG      -0.160400
     12 C4          15.3720   -12.7170     7.7650 cd         1 UYG      -0.099100
     13 C5          13.2950   -13.2980     8.3240 ca         1 UYG      -0.048200
     14 C6          14.0110   -14.4760     8.0180 ca         1 UYG      -0.097800
     15 C7          13.3570   -15.7110     8.0980 ca         1 UYG      -0.081000
     16 C8          12.0290   -15.7400     8.4750 ca         1 UYG      -0.155000
     17 C9          11.3350   -14.5560     8.7750 ca         1 UYG      -0.108000
     18 N1          17.5560   -14.7220     9.4890 ns         1 UYG      -0.562900
     19 N2          19.4300   -16.3800     8.4430 ns         1 UYG      -0.565900
     20 O1          19.1010   -13.5590    10.6350 o          1 UYG      -0.639500
     21 H1          11.4170   -12.4110     8.9340 ha         1 UYG       0.132000
     22 H2          20.5450   -15.5980     9.9860 h1         1 UYG       0.079700
     23 H3          21.1450   -13.5120     8.9640 hc         1 UYG       0.074700
     24 H4          22.5840   -15.5200     8.6070 hc         1 UYG       0.037867
     25 H5          21.7760   -15.8230     7.0640 hc         1 UYG       0.037867
     26 H6          22.7100   -14.3550     7.2920 hc         1 UYG       0.037867
     27 H7          13.9210   -11.2780     8.2950 hn         1 UYG       0.302700
     28 H8          16.3270   -16.2910     8.9740 h1         1 UYG       0.085700
     29 H9          19.1870   -13.0750     7.4870 hc         1 UYG       0.037867
     30 H10         20.6860   -13.0140     6.5760 hc         1 UYG       0.037867
     31 H11         19.6530   -14.4300     6.4540 hc         1 UYG       0.037867
     32 H12         16.1160   -15.7570     6.5990 hc         1 UYG       0.064700
     33 H13         17.2360   -14.4120     6.7520 hc         1 UYG       0.064700
     34 H14         16.1900   -12.0380     7.5810 h4         1 UYG       0.165000
     35 H15         13.8820   -16.6300     7.8650 ha         1 UYG       0.136000
     36 H16         11.5100   -16.6880     8.5400 ha         1 UYG       0.131000
     37 H17         10.2940   -14.6110     9.0660 ha         1 UYG       0.129000
     38 H18         16.8360   -14.1650     9.9300 hn         1 UYG       0.330500
     39 H19         20.1240   -17.0550     8.1510 hn         1 UYG       0.322500
     40 C14         20.0320   -13.6750     7.1450 c3         1 UYG      -0.092100
@<TRIPOS>BOND
     1     1    13 ar  
     2     1    17 ar  
     3     1    21 1   
     4     2     3 1   
     5     2     9 1   
     6     2    19 1   
     7     2    22 1   
     8     3     4 1   
     9     3    23 1   
    10     3    40 1   
    11     4    24 1   
    12     4    25 1   
    13     4    26 1   
    14     5    12 1   
    15     5    13 1   
    16     5    27 1   
    17     6     7 2   
    18     6     8 1   
    19     6    19 1   
    20     8    10 1   
    21     8    18 1   
    22     8    28 1   
    23     9    18 1   
    24     9    20 2   
    25    10    11 1   
    26    10    32 1   
    27    10    33 1   
    28    11    12 2   
    29    11    14 1   
    30    12    34 1   
    31    13    14 ar  
    32    14    15 ar  
    33    15    16 ar  
    34    15    35 1   
    35    16    17 ar  
    36    16    36 1   
    37    17    37 1   
    38    18    38 1   
    39    19    39 1   
    40    29    40 1   
    41    30    40 1   
    42    31    40 1   
@<TRIPOS>SUBSTRUCTURE
     1 UYG         1 TEMP              0 ****  ****    0 ROOT
