@<TRIPOS>MOLECULE
UYH
  141   141     1     0     0
SMALL
bcc


@<TRIPOS>ATOM
      1 C2         212.3500   169.0570   221.8120 c6         1 UYH       0.123100
      2 C4         210.8480   169.3260   223.8180 c6         1 UYH       0.103100
      3 C5         209.7750   169.8640   222.8690 c6         1 UYH       0.162100
      4 C6         208.8850   170.9580   223.4470 c3         1 UYH       0.148400
      5 C8         211.4560   170.9970   217.6590 c3         1 UYH       0.121100
      6 C9         212.1310   169.7910   217.0320 c3         1 UYH       0.141400
      7 O9         210.7080   173.5860   217.4500 o          1 UYH      -0.526000
      8 O10        211.4190   169.3070   214.4250 o          1 UYH      -0.527000
      9 C11        209.2930   173.1430   215.5560 c3         1 UYH      -0.135400
     10 C12        209.8010   172.7930   214.1550 c3         1 UYH      -0.070400
     11 O4         210.2270   168.6660   224.8910 oh         1 UYH      -0.572800
     12 O2         213.0910   168.1690   221.0200 oh         1 UYH      -0.584800
     13 C1         211.1870   169.5830   220.9850 c6         1 UYH       0.360900
     14 C13        208.8710   173.3500   213.0850 c3         1 UYH      -0.077400
     15 C14        209.3180   173.0450   211.6600 c3         1 UYH      -0.075400
     16 C15        208.4070   173.7000   210.6290 c3         1 UYH      -0.073400
     17 C16        208.8180   173.4870   209.1750 c3         1 UYH      -0.071400
     18 C17        208.7510   172.0480   208.6720 c3         1 UYH      -0.076400
     19 C18        207.4030   171.3640   208.8900 c3         1 UYH      -0.074400
     20 C19        207.1930   170.1700   207.9560 c3         1 UYH      -0.075400
     21 C20        206.6910   170.5980   206.5800 c3         1 UYH      -0.076400
     22 C21        206.6670   169.4820   205.5380 c3         1 UYH      -0.072400
     23 C22        208.0370   169.0310   205.0360 c3         1 UYH      -0.073400
     24 C23        208.8100   170.1320   204.3140 c3         1 UYH      -0.074400
     25 C24        210.0710   169.6530   203.5990 c3         1 UYH      -0.076400
     26 C25        209.8020   168.7790   202.3770 c3         1 UYH      -0.074400
     27 C26        211.0580   168.4190   201.5870 c3         1 UYH      -0.075400
     28 C27        212.0290   167.5270   202.3500 c3         1 UYH      -0.091100
     29 C28        212.3400   170.0440   214.6640 c          1 UYH       0.651100
     30 C29        213.0640   170.8950   213.6590 c3         1 UYH      -0.142400
     31 C3         211.7730   168.3790   223.0500 c6         1 UYH       0.065100
     32 C30        212.5840   170.7360   212.2260 c3         1 UYH      -0.068400
     33 C31        213.1510   171.8300   211.3300 c3         1 UYH      -0.078400
     34 C32        212.7170   171.7140   209.8750 c3         1 UYH      -0.076400
     35 C33        213.0930   172.9430   209.0550 c3         1 UYH      -0.072400
     36 C34        212.6290   172.9030   207.6030 c3         1 UYH      -0.075400
     37 C35        213.3360   171.8680   206.7350 c3         1 UYH      -0.075400
     38 C36        212.8470   171.9010   205.2910 c3         1 UYH      -0.076400
     39 C37        213.5120   170.8910   204.3620 c3         1 UYH      -0.075400
     40 C38        214.9810   171.1780   204.0750 c3         1 UYH      -0.073400
     41 C39        215.6250   170.1890   203.1030 c3         1 UYH      -0.070400
     42 C40        214.9360   170.0690   201.7450 c3         1 UYH      -0.076400
     43 C41        214.7980   171.3830   200.9860 c3         1 UYH      -0.075400
     44 C42        214.1570   171.2100   199.6160 c3         1 UYH      -0.076400
     45 C43        213.9950   172.5210   198.8570 c3         1 UYH      -0.075400
     46 C44        213.3430   172.3530   197.4900 c3         1 UYH      -0.074400
     47 C45        213.1900   173.6680   196.7400 c3         1 UYH      -0.088100
     48 C7         210.7070   170.6410   218.9370 c3         1 UYH       0.122400
     49 O1         211.6740   170.2780   219.9000 os         1 UYH      -0.383600
     50 O3         212.8490   167.9560   223.8630 oh         1 UYH      -0.604800
     51 O5         207.9500   170.4030   224.3370 oh         1 UYH      -0.582800
     52 O6         210.4210   170.4640   221.7620 os         1 UYH      -0.446600
     53 O7         210.5210   171.4880   216.6960 os         1 UYH      -0.426900
     54 O8         212.8540   170.2250   215.8850 os         1 UYH      -0.433900
     55 H1         212.9590   169.9190   222.1300 h1         1 UYH       0.071700
     56 H2         211.4440   170.1840   224.1700 h1         1 UYH       0.056700
     57 H3         209.1390   169.0280   222.5340 h1         1 UYH       0.060700
     58 H4         209.5160   171.7160   223.9310 h1         1 UYH       0.032700
     59 H5         208.3880   171.4490   222.6010 h1         1 UYH       0.032700
     60 H6         212.2060   171.7630   217.8750 h1         1 UYH       0.092700
     61 H7         211.4050   169.0150   216.7850 h1         1 UYH       0.081700
     62 H8         212.8560   169.3730   217.7290 h1         1 UYH       0.081700
     63 H9         209.0940   174.2130   215.6230 hc         1 UYH       0.072200
     64 H10        208.3450   172.6280   215.7380 hc         1 UYH       0.072200
     65 H11        209.8840   171.7100   214.0450 hc         1 UYH       0.052700
     66 H12        210.8060   173.2020   214.0100 hc         1 UYH       0.052700
     67 H13        210.9090   168.4220   225.5260 ho         1 UYH       0.409000
     68 H14        213.7570   167.7580   221.5830 ho         1 UYH       0.420000
     69 H15        210.5560   168.7350   220.6550 h2         1 UYH       0.031700
     70 H16        208.7930   174.4350   213.2100 hc         1 UYH       0.038200
     71 H17        207.8620   172.9530   213.2390 hc         1 UYH       0.038200
     72 H18        209.3480   171.9610   211.5130 hc         1 UYH       0.041200
     73 H19        210.3450   173.4020   211.5140 hc         1 UYH       0.041200
     74 H20        208.3810   174.7760   210.8250 hc         1 UYH       0.036700
     75 H21        207.3810   173.3490   210.7790 hc         1 UYH       0.036700
     76 H22        209.8350   173.8690   209.0310 hc         1 UYH       0.037200
     77 H23        208.1720   174.1020   208.5420 hc         1 UYH       0.037200
     78 H24        209.5330   171.4430   209.1420 hc         1 UYH       0.037700
     79 H25        208.9930   172.0530   207.6030 hc         1 UYH       0.037700
     80 H26        206.5890   172.0830   208.7370 hc         1 UYH       0.038200
     81 H27        207.3250   171.0450   209.9320 hc         1 UYH       0.038200
     82 H28        206.4700   169.4730   208.3900 hc         1 UYH       0.039200
     83 H29        208.1330   169.6150   207.8710 hc         1 UYH       0.039200
     84 H30        207.2880   171.4380   206.2110 hc         1 UYH       0.036700
     85 H31        205.6780   170.9940   206.6980 hc         1 UYH       0.036700
     86 H32        206.0770   169.8140   204.6770 hc         1 UYH       0.036700
     87 H33        206.1310   168.6210   205.9510 hc         1 UYH       0.036700
     88 H34        207.8900   168.1840   204.3610 hc         1 UYH       0.038200
     89 H35        208.6430   168.6520   205.8650 hc         1 UYH       0.038200
     90 H36        209.0920   170.9080   205.0320 hc         1 UYH       0.036700
     91 H37        208.1500   170.6210   203.5870 hc         1 UYH       0.036700
     92 H38        210.7120   169.1250   204.3130 hc         1 UYH       0.038200
     93 H39        210.6430   170.5280   203.2750 hc         1 UYH       0.038200
     94 H40        209.1070   169.3090   201.7180 hc         1 UYH       0.037200
     95 H41        209.2930   167.8560   202.6720 hc         1 UYH       0.037200
     96 H42        211.5690   169.3380   201.2790 hc         1 UYH       0.036200
     97 H43        210.7630   167.9150   200.6630 hc         1 UYH       0.036200
     98 H44        212.8810   167.2470   201.7290 hc         1 UYH       0.031367
     99 H45        212.4240   168.0210   203.2390 hc         1 UYH       0.031367
    100 H46        211.5410   166.6050   202.6740 hc         1 UYH       0.031367
    101 H47        214.1370   170.6960   213.7340 hc         1 UYH       0.071700
    102 H48        212.9420   171.9360   213.9810 hc         1 UYH       0.071700
    103 H49        211.1780   167.5160   222.7190 h1         1 UYH       0.053700
    104 H50        211.4920   170.7820   212.1900 hc         1 UYH       0.054200
    105 H51        212.8630   169.7510   211.8420 hc         1 UYH       0.054200
    106 H52        214.2450   171.8270   211.3860 hc         1 UYH       0.036700
    107 H53        212.8330   172.8020   211.7250 hc         1 UYH       0.036700
    108 H54        211.6310   171.5780   209.8270 hc         1 UYH       0.041200
    109 H55        213.1530   170.8110   209.4360 hc         1 UYH       0.041200
    110 H56        214.1790   173.0900   209.0870 hc         1 UYH       0.036700
    111 H57        212.6570   173.8220   209.5400 hc         1 UYH       0.036700
    112 H58        212.7790   173.8910   207.1580 hc         1 UYH       0.037700
    113 H59        211.5470   172.7230   207.5730 hc         1 UYH       0.037700
    114 H60        213.1810   170.8620   207.1380 hc         1 UYH       0.038700
    115 H61        214.4150   172.0500   206.7750 hc         1 UYH       0.038700
    116 H62        212.9880   172.9090   204.8850 hc         1 UYH       0.036200
    117 H63        211.7650   171.7250   205.2860 hc         1 UYH       0.036200
    118 H64        212.9580   170.8810   203.4190 hc         1 UYH       0.039200
    119 H65        213.4070   169.8810   204.7770 hc         1 UYH       0.039200
    120 H66        215.5540   171.1650   205.0070 hc         1 UYH       0.037200
    121 H67        215.0740   172.1970   203.6860 hc         1 UYH       0.037200
    122 H68        215.6520   169.1990   203.5700 hc         1 UYH       0.036700
    123 H69        216.6690   170.4780   202.9490 hc         1 UYH       0.036700
    124 H70        213.9440   169.6240   201.8690 hc         1 UYH       0.037700
    125 H71        215.5000   169.3600   201.1300 hc         1 UYH       0.037700
    126 H72        215.7850   171.8460   200.8740 hc         1 UYH       0.038200
    127 H73        214.1990   172.0900   201.5690 hc         1 UYH       0.038200
    128 H74        213.1750   170.7370   199.7350 hc         1 UYH       0.036200
    129 H75        214.7550   170.5140   199.0170 hc         1 UYH       0.036200
    130 H76        214.9770   172.9920   198.7340 hc         1 UYH       0.036700
    131 H77        213.4010   173.2170   199.4580 hc         1 UYH       0.036700
    132 H78        212.3620   171.8840   197.6130 hc         1 UYH       0.036700
    133 H79        213.9370   171.6560   196.8900 hc         1 UYH       0.036700
    134 H80        212.7230   173.5230   195.7650 hc         1 UYH       0.031367
    135 H81        212.5710   174.3720   197.3000 hc         1 UYH       0.031367
    136 H82        214.1580   174.1430   196.5740 hc         1 UYH       0.031367
    137 H83        210.1210   171.5020   219.2720 h1         1 UYH       0.048700
    138 H84        210.0090   169.8150   218.7470 h1         1 UYH       0.048700
    139 H85        212.6650   167.0740   224.1960 ho         1 UYH       0.414000
    140 H86        207.3560   171.1070   224.6130 ho         1 UYH       0.408000
    141 C10        210.2450   172.7960   216.6670 c          1 UYH       0.643100
@<TRIPOS>BOND
     1     1    12 1   
     2     1    13 1   
     3     1    31 1   
     4     1    55 1   
     5     2     3 1   
     6     2    11 1   
     7     2    31 1   
     8     2    56 1   
     9     3     4 1   
    10     3    52 1   
    11     3    57 1   
    12     4    51 1   
    13     4    58 1   
    14     4    59 1   
    15     5     6 1   
    16     5    48 1   
    17     5    53 1   
    18     5    60 1   
    19     6    54 1   
    20     6    61 1   
    21     6    62 1   
    22     7   141 2   
    23     8    29 2   
    24     9    10 1   
    25     9    63 1   
    26     9    64 1   
    27     9   141 1   
    28    10    14 1   
    29    10    65 1   
    30    10    66 1   
    31    11    67 1   
    32    12    68 1   
    33    13    49 1   
    34    13    52 1   
    35    13    69 1   
    36    14    15 1   
    37    14    70 1   
    38    14    71 1   
    39    15    16 1   
    40    15    72 1   
    41    15    73 1   
    42    16    17 1   
    43    16    74 1   
    44    16    75 1   
    45    17    18 1   
    46    17    76 1   
    47    17    77 1   
    48    18    19 1   
    49    18    78 1   
    50    18    79 1   
    51    19    20 1   
    52    19    80 1   
    53    19    81 1   
    54    20    21 1   
    55    20    82 1   
    56    20    83 1   
    57    21    22 1   
    58    21    84 1   
    59    21    85 1   
    60    22    23 1   
    61    22    86 1   
    62    22    87 1   
    63    23    24 1   
    64    23    88 1   
    65    23    89 1   
    66    24    25 1   
    67    24    90 1   
    68    24    91 1   
    69    25    26 1   
    70    25    92 1   
    71    25    93 1   
    72    26    27 1   
    73    26    94 1   
    74    26    95 1   
    75    27    28 1   
    76    27    96 1   
    77    27    97 1   
    78    28    98 1   
    79    28    99 1   
    80    28   100 1   
    81    29    30 1   
    82    29    54 1   
    83    30    32 1   
    84    30   101 1   
    85    30   102 1   
    86    31    50 1   
    87    31   103 1   
    88    32    33 1   
    89    32   104 1   
    90    32   105 1   
    91    33    34 1   
    92    33   106 1   
    93    33   107 1   
    94    34    35 1   
    95    34   108 1   
    96    34   109 1   
    97    35    36 1   
    98    35   110 1   
    99    35   111 1   
   100    36    37 1   
   101    36   112 1   
   102    36   113 1   
   103    37    38 1   
   104    37   114 1   
   105    37   115 1   
   106    38    39 1   
   107    38   116 1   
   108    38   117 1   
   109    39    40 1   
   110    39   118 1   
   111    39   119 1   
   112    40    41 1   
   113    40   120 1   
   114    40   121 1   
   115    41    42 1   
   116    41   122 1   
   117    41   123 1   
   118    42    43 1   
   119    42   124 1   
   120    42   125 1   
   121    43    44 1   
   122    43   126 1   
   123    43   127 1   
   124    44    45 1   
   125    44   128 1   
   126    44   129 1   
   127    45    46 1   
   128    45   130 1   
   129    45   131 1   
   130    46    47 1   
   131    46   132 1   
   132    46   133 1   
   133    47   134 1   
   134    47   135 1   
   135    47   136 1   
   136    48    49 1   
   137    48   137 1   
   138    48   138 1   
   139    50   139 1   
   140    51   140 1   
   141    53   141 1   
@<TRIPOS>SUBSTRUCTURE
     1 UYH         1 TEMP              0 ****  ****    0 ROOT
