@<TRIPOS>MOLECULE
UYH
  141   141     1     0     0
SMALL
No Charge or Current Charge


@<TRIPOS>ATOM
      1 C2         212.8310   168.8280   222.0490 c6         1 UYH       0.146300
      2 C4         211.4340   169.3710   224.1170 c6         1 UYH       0.126300
      3 C5         210.2430   169.7290   223.1530 c6         1 UYH       0.185300
      4 C6         209.3370   170.9070   223.6520 c3         1 UYH       0.171600
      5 C8         211.4620   170.4430   217.6580 c3         1 UYH       0.144300
      6 C9         212.4280   169.4510   216.9550 c3         1 UYH       0.164600
      7 O9         210.0960   172.8650   217.5660 o          1 UYH      -0.477000
      8 O10        211.4180   169.2310   214.3570 o          1 UYH      -0.478000
      9 C11        208.6690   172.1030   215.7530 c3         1 UYH      -0.135400
     10 C12        209.2440   172.5360   214.3800 c3         1 UYH      -0.070400
     11 O4         211.0110   168.8420   225.3860 oh         1 UYH      -0.695000
     12 O2         213.6970   167.8510   221.4200 oh         1 UYH      -0.707000
     13 C1         211.5620   169.1560   221.1960 c6         1 UYH       0.407300
     14 C13        208.1470   172.9760   213.3870 c3         1 UYH      -0.077400
     15 C14        208.6710   173.2900   211.9660 c3         1 UYH      -0.075400
     16 C15        207.5800   173.9340   211.0800 c3         1 UYH      -0.073400
     17 C16        207.9930   174.2060   209.6110 c3         1 UYH      -0.071400
     18 C17        208.2300   172.9560   208.7250 c3         1 UYH      -0.076400
     19 C18        207.0490   171.9550   208.7040 c3         1 UYH      -0.074400
     20 C19        207.1070   170.9120   207.5630 c3         1 UYH      -0.075400
     21 C20        206.6830   171.4770   206.1830 c3         1 UYH      -0.076400
     22 C21        206.5400   170.4060   205.0720 c3         1 UYH      -0.072400
     23 C22        207.8550   169.7410   204.5960 c3         1 UYH      -0.073400
     24 C23        208.8020   170.7000   203.8330 c3         1 UYH      -0.074400
     25 C24        210.0960   170.0390   203.3020 c3         1 UYH      -0.076400
     26 C25        209.8810   168.9870   202.1880 c3         1 UYH      -0.074400
     27 C26        211.1940   168.4450   201.5750 c3         1 UYH      -0.075400
     28 C27        212.0460   167.6000   202.5450 c3         1 UYH      -0.091100
     29 C28        212.3130   170.0300   214.5990 c          1 UYH       0.602100
     30 C29        212.8230   171.0790   213.6080 c3         1 UYH      -0.142400
     31 C3         212.3660   168.3210   223.4420 c6         1 UYH       0.088300
     32 C30        212.3470   170.9100   212.1450 c3         1 UYH      -0.068400
     33 C31        212.6240   172.1570   211.2810 c3         1 UYH      -0.078400
     34 C32        212.2520   171.9520   209.7990 c3         1 UYH      -0.076400
     35 C33        212.4150   173.2370   208.9530 c3         1 UYH      -0.072400
     36 C34        212.0600   173.0660   207.4570 c3         1 UYH      -0.075400
     37 C35        213.0200   172.1360   206.6790 c3         1 UYH      -0.075400
     38 C36        212.6700   172.0360   205.1780 c3         1 UYH      -0.076400
     39 C37        213.5170   171.0040   204.3950 c3         1 UYH      -0.075400
     40 C38        215.0010   171.4010   204.2050 c3         1 UYH      -0.073400
     41 C39        215.8600   170.3360   203.4750 c3         1 UYH      -0.070400
     42 C40        215.3590   169.8970   202.0760 c3         1 UYH      -0.076400
     43 C41        215.2220   171.0430   201.0480 c3         1 UYH      -0.075400
     44 C42        214.7670   170.5480   199.6580 c3         1 UYH      -0.076400
     45 C43        214.6030   171.6920   198.6330 c3         1 UYH      -0.075400
     46 C44        214.1410   171.1970   197.2450 c3         1 UYH      -0.074400
     47 C45        213.9750   172.3370   196.2220 c3         1 UYH      -0.088100
     48 C7         210.8660   169.8970   218.9770 c3         1 UYH       0.145600
     49 O1         211.9420   169.6520   219.9010 os         1 UYH      -0.430000
     50 O3         213.4990   168.0340   224.2830 oh         1 UYH      -0.667000
     51 O5         208.4980   170.5750   224.7750 oh         1 UYH      -0.705000
     52 O6         210.7800   170.1580   221.8730 os         1 UYH      -0.493000
     53 O7         210.3670   170.7320   216.7550 os         1 UYH      -0.450100
     54 O8         212.9850   170.1110   215.7930 os         1 UYH      -0.457100
     55 H1         213.3790   169.7720   222.1920 h1         1 UYH       0.071700
     56 H2         212.0180   170.2900   224.2790 h1         1 UYH       0.056700
     57 H3         209.6100   168.8440   222.9910 h1         1 UYH       0.060700
     58 H4         209.9890   171.7540   223.9050 h1         1 UYH       0.032700
     59 H5         208.7080   171.2240   222.8090 h1         1 UYH       0.032700
     60 H6         212.0410   171.3490   217.8850 h1         1 UYH       0.092700
     61 H7         211.9090   168.5170   216.7010 h1         1 UYH       0.081700
     62 H8         213.2340   169.1990   217.6560 h1         1 UYH       0.081700
     63 H9         207.9390   172.8450   216.0960 hc         1 UYH       0.072200
     64 H10        208.1950   171.1270   215.6010 hc         1 UYH       0.072200
     65 H11        209.8150   171.7040   213.9510 hc         1 UYH       0.052700
     66 H12        209.9460   173.3680   214.5220 hc         1 UYH       0.052700
     67 H13        211.8070   168.3660   225.7280 ho         1 UYH       0.508000
     68 H14        213.8700   168.1800   220.5060 ho         1 UYH       0.519000
     69 H15        210.9600   168.2430   221.0690 h2         1 UYH       0.031700
     70 H16        207.6460   173.8650   213.7910 hc         1 UYH       0.038200
     71 H17        207.3850   172.1890   213.3160 hc         1 UYH       0.038200
     72 H18        209.0310   172.3620   211.5040 hc         1 UYH       0.041200
     73 H19        209.5280   173.9720   212.0310 hc         1 UYH       0.041200
     74 H20        207.2930   174.8920   211.5320 hc         1 UYH       0.036700
     75 H21        206.6770   173.3120   211.0990 hc         1 UYH       0.036700
     76 H22        208.9000   174.8230   209.6030 hc         1 UYH       0.037200
     77 H23        207.2070   174.8110   209.1430 hc         1 UYH       0.037200
     78 H24        209.1320   172.4340   209.0610 hc         1 UYH       0.037700
     79 H25        208.4360   173.3030   207.7060 hc         1 UYH       0.037700
     80 H26        206.1000   172.5020   208.6410 hc         1 UYH       0.038200
     81 H27        207.0330   171.4170   209.6600 hc         1 UYH       0.038200
     82 H28        206.4350   170.0840   207.8210 hc         1 UYH       0.039200
     83 H29        208.1180   170.4910   207.5050 hc         1 UYH       0.039200
     84 H30        207.3840   172.2560   205.8640 hc         1 UYH       0.036700
     85 H31        205.7100   171.9710   206.2970 hc         1 UYH       0.036700
     86 H32        206.0470   170.8640   204.2060 hc         1 UYH       0.036700
     87 H33        205.8590   169.6220   205.4270 hc         1 UYH       0.036700
     88 H34        207.5840   168.9080   203.9370 hc         1 UYH       0.038200
     89 H35        208.3830   169.3020   205.4500 hc         1 UYH       0.038200
     90 H36        209.0920   171.5200   204.4990 hc         1 UYH       0.036700
     91 H37        208.2620   171.1540   202.9930 hc         1 UYH       0.036700
     92 H38        210.6330   169.5860   204.1440 hc         1 UYH       0.038200
     93 H39        210.7380   170.8330   202.9040 hc         1 UYH       0.038200
     94 H40        209.2840   169.4390   201.3860 hc         1 UYH       0.037200
     95 H41        209.2980   168.1430   202.5770 hc         1 UYH       0.037200
     96 H42        211.7950   169.2820   201.2000 hc         1 UYH       0.036200
     97 H43        210.9440   167.8260   200.7040 hc         1 UYH       0.036200
     98 H44        212.9230   167.1960   202.0250 hc         1 UYH       0.031367
     99 H45        212.4020   168.2020   203.3880 hc         1 UYH       0.031367
    100 H46        211.4650   166.7580   202.9400 hc         1 UYH       0.031367
    101 H47        213.9150   171.1370   213.6880 hc         1 UYH       0.071700
    102 H48        212.5270   172.0530   214.0140 hc         1 UYH       0.071700
    103 H49        211.7840   167.3990   223.2830 h1         1 UYH       0.053700
    104 H50        211.2680   170.7110   212.1300 hc         1 UYH       0.054200
    105 H51        212.8400   170.0330   211.7060 hc         1 UYH       0.054200
    106 H52        213.6870   172.4200   211.3510 hc         1 UYH       0.036700
    107 H53        212.0560   173.0050   211.6850 hc         1 UYH       0.036700
    108 H54        211.2150   171.6030   209.7300 hc         1 UYH       0.041200
    109 H55        212.8850   171.1550   209.3910 hc         1 UYH       0.041200
    110 H56        213.4460   173.6030   209.0390 hc         1 UYH       0.036700
    111 H57        211.7690   174.0170   209.3740 hc         1 UYH       0.036700
    112 H58        212.0690   174.0560   206.9850 hc         1 UYH       0.037700
    113 H59        211.0350   172.6870   207.3690 hc         1 UYH       0.037700
    114 H60        212.9870   171.1290   207.1110 hc         1 UYH       0.038700
    115 H61        214.0460   172.5050   206.7950 hc         1 UYH       0.038700
    116 H62        212.7720   173.0220   204.7090 hc         1 UYH       0.036200
    117 H63        211.6140   171.7560   205.0900 hc         1 UYH       0.036200
    118 H64        213.0600   170.8750   203.4070 hc         1 UYH       0.039200
    119 H65        213.4580   170.0310   204.8970 hc         1 UYH       0.039200
    120 H66        215.4560   171.5830   205.1850 hc         1 UYH       0.037200
    121 H67        215.0550   172.3510   203.6610 hc         1 UYH       0.037200
    122 H68        215.9280   169.4460   204.1130 hc         1 UYH       0.036700
    123 H69        216.8820   170.7210   203.3780 hc         1 UYH       0.036700
    124 H70        214.3970   169.3830   202.1760 hc         1 UYH       0.037700
    125 H71        216.0610   169.1520   201.6800 hc         1 UYH       0.037700
    126 H72        216.1840   171.5610   200.9530 hc         1 UYH       0.038200
    127 H73        214.4940   171.7780   201.4130 hc         1 UYH       0.038200
    128 H74        213.8130   170.0170   199.7590 hc         1 UYH       0.036200
    129 H75        215.4980   169.8240   199.2760 hc         1 UYH       0.036200
    130 H76        215.5580   172.2210   198.5270 hc         1 UYH       0.036700
    131 H77        213.8750   172.4170   199.0160 hc         1 UYH       0.036700
    132 H78        213.1860   170.6680   197.3470 hc         1 UYH       0.036700
    133 H79        214.8680   170.4730   196.8560 hc         1 UYH       0.036700
    134 H80        213.6470   171.9380   195.2550 hc         1 UYH       0.031367
    135 H81        213.2270   173.0610   196.5660 hc         1 UYH       0.031367
    136 H82        214.9250   172.8650   196.0710 hc         1 UYH       0.031367
    137 H83        210.1650   170.6360   219.3870 h1         1 UYH       0.048700
    138 H84        210.3100   168.9720   218.7730 h1         1 UYH       0.048700
    139 H85        214.1640   167.6210   223.6830 ho         1 UYH       0.453000
    140 H86        208.0150   171.3970   225.0270 ho         1 UYH       0.507000
    141 C10        209.7690   171.9640   216.8060 c          1 UYH       0.594100
@<TRIPOS>BOND
     1     1    12 1   
     2     1    13 1   
     3     1    31 1   
     4     1    55 1   
     5     2     3 1   
     6     2    11 1   
     7     2    31 1   
     8     2    56 1   
     9     3     4 1   
    10     3    52 1   
    11     3    57 1   
    12     4    51 1   
    13     4    58 1   
    14     4    59 1   
    15     5     6 1   
    16     5    48 1   
    17     5    53 1   
    18     5    60 1   
    19     6    54 1   
    20     6    61 1   
    21     6    62 1   
    22     7   141 2   
    23     8    29 2   
    24     9    10 1   
    25     9    63 1   
    26     9    64 1   
    27     9   141 1   
    28    10    14 1   
    29    10    65 1   
    30    10    66 1   
    31    11    67 1   
    32    12    68 1   
    33    13    49 1   
    34    13    52 1   
    35    13    69 1   
    36    14    15 1   
    37    14    70 1   
    38    14    71 1   
    39    15    16 1   
    40    15    72 1   
    41    15    73 1   
    42    16    17 1   
    43    16    74 1   
    44    16    75 1   
    45    17    18 1   
    46    17    76 1   
    47    17    77 1   
    48    18    19 1   
    49    18    78 1   
    50    18    79 1   
    51    19    20 1   
    52    19    80 1   
    53    19    81 1   
    54    20    21 1   
    55    20    82 1   
    56    20    83 1   
    57    21    22 1   
    58    21    84 1   
    59    21    85 1   
    60    22    23 1   
    61    22    86 1   
    62    22    87 1   
    63    23    24 1   
    64    23    88 1   
    65    23    89 1   
    66    24    25 1   
    67    24    90 1   
    68    24    91 1   
    69    25    26 1   
    70    25    92 1   
    71    25    93 1   
    72    26    27 1   
    73    26    94 1   
    74    26    95 1   
    75    27    28 1   
    76    27    96 1   
    77    27    97 1   
    78    28    98 1   
    79    28    99 1   
    80    28   100 1   
    81    29    30 1   
    82    29    54 1   
    83    30    32 1   
    84    30   101 1   
    85    30   102 1   
    86    31    50 1   
    87    31   103 1   
    88    32    33 1   
    89    32   104 1   
    90    32   105 1   
    91    33    34 1   
    92    33   106 1   
    93    33   107 1   
    94    34    35 1   
    95    34   108 1   
    96    34   109 1   
    97    35    36 1   
    98    35   110 1   
    99    35   111 1   
   100    36    37 1   
   101    36   112 1   
   102    36   113 1   
   103    37    38 1   
   104    37   114 1   
   105    37   115 1   
   106    38    39 1   
   107    38   116 1   
   108    38   117 1   
   109    39    40 1   
   110    39   118 1   
   111    39   119 1   
   112    40    41 1   
   113    40   120 1   
   114    40   121 1   
   115    41    42 1   
   116    41   122 1   
   117    41   123 1   
   118    42    43 1   
   119    42   124 1   
   120    42   125 1   
   121    43    44 1   
   122    43   126 1   
   123    43   127 1   
   124    44    45 1   
   125    44   128 1   
   126    44   129 1   
   127    45    46 1   
   128    45   130 1   
   129    45   131 1   
   130    46    47 1   
   131    46   132 1   
   132    46   133 1   
   133    47   134 1   
   134    47   135 1   
   135    47   136 1   
   136    48    49 1   
   137    48   137 1   
   138    48   138 1   
   139    50   139 1   
   140    51   140 1   
   141    53   141 1   
@<TRIPOS>SUBSTRUCTURE
     1 UYH         1 TEMP              0 ****  ****    0 ROOT
