@<TRIPOS>MOLECULE
UYK
   63    67     1     0     0
SMALL
abcg2


@<TRIPOS>ATOM
      1 C4           2.9130    -4.5550   -24.4960 c3         1 UYK       0.082300
      2 C5           2.0870    -5.8300   -24.3900 c3         1 UYK      -0.107100
      3 C7           2.7040    -2.6570   -22.8910 cc         1 UYK       0.416800
      4 C10          4.2520    -3.4750   -19.8720 ca         1 UYK       0.408900
      5 C13          5.7920    -6.6700   -19.9530 ca         1 UYK      -0.037000
      6 C15          6.8640    -8.8690   -20.2440 cc         1 UYK      -0.175000
      7 C20          6.5750   -10.1970   -20.1970 cd         1 UYK       0.218300
      8 C21          5.3920   -10.9890   -20.6010 c3         1 UYK      -0.132400
      9 C22          5.5560    -7.7480   -22.0740 ca         1 UYK       0.153100
     10 C24          5.3720    -8.8990   -24.1410 c3         1 UYK       0.146900
     11 C26          4.5430    -5.5610   -21.7280 ca         1 UYK       0.001000
     12 C28          1.9130    -1.7940   -23.8200 c6         1 UYK      -0.075000
     13 C25          4.8180    -6.6840   -22.5370 ca         1 UYK      -0.213000
     14 C14          6.0540    -7.7570   -20.7440 ca         1 UYK      -0.021000
     15 C12          5.0560    -5.5540   -20.4000 ca         1 UYK       0.234000
     16 C9           3.7000    -3.3560   -21.1590 ca         1 UYK       0.012400
     17 C27          3.8160    -4.3880   -22.0860 ca         1 UYK      -0.062200
     18 C16          8.1690    -8.7910   -19.6750 cc         1 UYK       0.294300
     19 C29          2.0220    -0.3150   -23.4480 c6         1 UYK      -0.107900
     20 C33          0.4280    -2.1870   -23.8300 c6         1 UYK      -0.107900
     21 C30          1.1520     0.5120   -24.3810 c6         1 UYK       0.153100
     22 C32         -0.3530    -1.2420   -24.7290 c6         1 UYK       0.153100
     23 C1           5.9900    -3.3900   -26.0810 c3         1 UYK       0.145900
     24 C3           4.1990    -4.6770   -25.3020 c3         1 UYK       0.143600
     25 N11          4.9000    -4.5400   -19.5050 nb         1 UYK      -0.670000
     26 N8           3.0160    -2.3010   -21.6770 nd         1 UYK      -0.557100
     27 N18          8.5990    -9.9700   -19.3330 nd         1 UYK      -0.369300
     28 N6           3.1480    -3.9220   -23.2000 na         1 UYK      -0.144600
     29 O19          7.6040   -10.8490   -19.6540 os         1 UYK      -0.075700
     30 O31         -0.1980     0.1050   -24.3480 os         1 UYK      -0.445000
     31 O23          5.8660    -8.8200   -22.8180 os         1 UYK      -0.334100
     32 O2           4.7530    -3.3960   -25.4160 os         1 UYK      -0.450000
     33 H1           2.2940    -3.8530   -25.0520 h1         1 UYK       0.074700
     34 H2           1.1170    -5.6010   -23.9490 hc         1 UYK       0.052367
     35 H3           1.9130    -6.2330   -25.3870 hc         1 UYK       0.052367
     36 H4           2.5460    -6.6110   -23.7910 hc         1 UYK       0.052367
     37 H5           4.1410    -2.6670   -19.1550 h4         1 UYK       0.035100
     38 H6           6.1530    -6.6460   -18.9320 ha         1 UYK       0.138000
     39 H7          10.0120    -7.8480   -19.1630 hc         1 UYK       0.058033
     40 H8           9.0720    -7.0050   -20.4020 hc         1 UYK       0.058033
     41 H9           8.5760    -6.9240   -18.7200 hc         1 UYK       0.058033
     42 H10          5.1490   -11.7400   -19.8500 hc         1 UYK       0.061700
     43 H11          4.5290   -10.3400   -20.7290 hc         1 UYK       0.061700
     44 H12          5.5690   -11.5050   -21.5460 hc         1 UYK       0.061700
     45 H13          5.7220    -9.8460   -24.5430 h1         1 UYK       0.040367
     46 H14          4.2790    -8.8850   -24.1680 h1         1 UYK       0.040367
     47 H15          5.7520    -8.0870   -24.7670 h1         1 UYK       0.040367
     48 H16          2.3070    -1.9000   -24.8370 hc         1 UYK       0.062700
     49 H17          4.4650    -6.7070   -23.5510 ha         1 UYK       0.112000
     50 H18          3.0570     0.0260   -23.5230 hc         1 UYK       0.062200
     51 H19          1.7040    -0.1630   -22.4150 hc         1 UYK       0.062200
     52 H20          0.0400    -2.1430   -22.8090 hc         1 UYK       0.062200
     53 H21          0.2850    -3.2120   -24.1830 hc         1 UYK       0.062200
     54 H22          1.5460     0.4460   -25.4060 h1         1 UYK       0.043700
     55 H23          1.1750     1.5640   -24.0900 h1         1 UYK       0.043700
     56 H24         -1.4200    -1.4680   -24.6830 h1         1 UYK       0.043700
     57 H25         -0.0300    -1.3860   -25.7710 h1         1 UYK       0.043700
     58 H26          6.3570    -2.3650   -26.0970 h1         1 UYK       0.033700
     59 H27          6.7310    -4.0170   -25.5710 h1         1 UYK       0.033700
     60 H28          5.9040    -3.7450   -27.1150 h1         1 UYK       0.033700
     61 H29          3.9420    -5.0970   -26.2840 h1         1 UYK       0.033700
     62 H30          4.9170    -5.3670   -24.8430 h1         1 UYK       0.033700
     63 C17          9.0060    -7.5790   -19.4780 c3         1 UYK      -0.135400
@<TRIPOS>BOND
     1     1     2 1   
     2     1    24 1   
     3     1    28 1   
     4     1    33 1   
     5     2    34 1   
     6     2    35 1   
     7     2    36 1   
     8     3    12 1   
     9     3    26 2   
    10     3    28 1   
    11     4    16 ar  
    12     4    25 ar  
    13     4    37 1   
    14     5    14 ar  
    15     5    15 ar  
    16     5    38 1   
    17     6     7 2   
    18     6    14 1   
    19     6    18 1   
    20     7     8 1   
    21     7    29 1   
    22     8    42 1   
    23     8    43 1   
    24     8    44 1   
    25     9    13 ar  
    26     9    14 ar  
    27     9    31 1   
    28    10    31 1   
    29    10    45 1   
    30    10    46 1   
    31    10    47 1   
    32    11    13 ar  
    33    11    15 ar  
    34    11    17 ar  
    35    12    19 1   
    36    12    20 1   
    37    12    48 1   
    38    13    49 1   
    39    15    25 ar  
    40    16    17 ar  
    41    16    26 1   
    42    17    28 1   
    43    18    27 2   
    44    18    63 1   
    45    19    21 1   
    46    19    50 1   
    47    19    51 1   
    48    20    22 1   
    49    20    52 1   
    50    20    53 1   
    51    21    30 1   
    52    21    54 1   
    53    21    55 1   
    54    22    30 1   
    55    22    56 1   
    56    22    57 1   
    57    23    32 1   
    58    23    58 1   
    59    23    59 1   
    60    23    60 1   
    61    24    32 1   
    62    24    61 1   
    63    24    62 1   
    64    27    29 1   
    65    39    63 1   
    66    40    63 1   
    67    41    63 1   
@<TRIPOS>SUBSTRUCTURE
     1 UYK         1 TEMP              0 ****  ****    0 ROOT
