@<TRIPOS>MOLECULE
UYK
   63    67     1     0     0
SMALL
No Charge or Current Charge


@<TRIPOS>ATOM
      1 C4           2.8650    -4.7510   -24.3010 c3         1 UYK       0.082300
      2 C5           2.1130    -6.0730   -23.9890 c3         1 UYK      -0.107100
      3 C7           2.7320    -2.6590   -22.8120 cc         1 UYK       0.416800
      4 C10          4.0700    -3.6050   -19.6770 ca         1 UYK       0.408900
      5 C13          5.8520    -6.7360   -19.8150 ca         1 UYK      -0.037000
      6 C15          7.0250    -8.8980   -20.2040 cc         1 UYK      -0.175000
      7 C20          6.6880   -10.2020   -20.4350 cd         1 UYK       0.218300
      8 C21          5.5520   -10.8370   -21.1950 c3         1 UYK      -0.132400
      9 C22          5.8560    -7.6450   -22.0610 ca         1 UYK       0.153100
     10 C24          6.0030    -8.5600   -24.3630 c3         1 UYK       0.146900
     11 C26          4.6570    -5.5440   -21.5860 ca         1 UYK       0.001000
     12 C28          1.9920    -1.7670   -23.8010 c6         1 UYK      -0.075000
     13 C25          5.0800    -6.5470   -22.4870 ca         1 UYK      -0.213000
     14 C14          6.2300    -7.7590   -20.7030 ca         1 UYK      -0.021000
     15 C12          5.0820    -5.6340   -20.2240 ca         1 UYK       0.234000
     16 C9           3.6120    -3.4480   -20.9980 ca         1 UYK       0.012400
     17 C27          3.8550    -4.4140   -21.9420 ca         1 UYK      -0.062200
     18 C16          8.0100    -8.9780   -19.1890 cc         1 UYK       0.294300
     19 C29          2.3320    -0.2600   -23.5990 c6         1 UYK      -0.107900
     20 C33          0.4540    -1.9760   -23.6910 c6         1 UYK      -0.107900
     21 C30          1.4930     0.6190   -24.5560 c6         1 UYK       0.153100
     22 C32         -0.2970    -1.0100   -24.6390 c6         1 UYK       0.153100
     23 C1           5.0200    -3.4930   -27.1070 c3         1 UYK       0.145900
     24 C3           3.9860    -4.8300   -25.3760 c3         1 UYK       0.143600
     25 N11          4.7820    -4.6910   -19.2930 nb         1 UYK      -0.670000
     26 N8           2.9220    -2.3570   -21.5160 nd         1 UYK      -0.557100
     27 N18          8.3480   -10.2150   -18.8710 nd         1 UYK      -0.369300
     28 N6           3.2360    -3.9450   -23.1020 na         1 UYK      -0.144600
     29 O19          7.4910   -11.0250   -19.6900 os         1 UYK      -0.075700
     30 O31          0.0870     0.3530   -24.3590 os         1 UYK      -0.445000
     31 O23          6.3280    -8.5830   -22.9620 os         1 UYK      -0.334100
     32 O2           4.0210    -3.5750   -26.0770 os         1 UYK      -0.450000
     33 H1           2.0790    -4.1820   -24.8090 h1         1 UYK       0.074700
     34 H2           1.2170    -5.8570   -23.3950 hc         1 UYK       0.052367
     35 H3           1.7840    -6.5510   -24.9200 hc         1 UYK       0.052367
     36 H4           2.7020    -6.8010   -23.4300 hc         1 UYK       0.052367
     37 H5           3.8730    -2.8490   -18.9170 h4         1 UYK       0.035100
     38 H6           6.1300    -6.8020   -18.7690 ha         1 UYK       0.138000
     39 H7           9.7030    -8.0030   -18.2860 hc         1 UYK       0.058033
     40 H8           8.6730    -6.9260   -19.2370 hc         1 UYK       0.058033
     41 H9           8.1360    -7.4910   -17.6380 hc         1 UYK       0.058033
     42 H10          5.1980   -11.7410   -20.6860 hc         1 UYK       0.061700
     43 H11          4.6980   -10.1560   -21.2840 hc         1 UYK       0.061700
     44 H12          5.8680   -11.1270   -22.2030 hc         1 UYK       0.061700
     45 H13          6.4730    -9.4090   -24.8750 h1         1 UYK       0.040367
     46 H14          4.9180    -8.6320   -24.5120 h1         1 UYK       0.040367
     47 H15          6.3650    -7.6370   -24.8330 h1         1 UYK       0.040367
     48 H16          2.3000    -2.0180   -24.8230 hc         1 UYK       0.062700
     49 H17          4.8220    -6.4760   -23.5250 ha         1 UYK       0.112000
     50 H18          3.4020    -0.0850   -23.7750 hc         1 UYK       0.062200
     51 H19          2.1280     0.0480   -22.5640 hc         1 UYK       0.062200
     52 H20          0.1220    -1.8020   -22.6580 hc         1 UYK       0.062200
     53 H21          0.1880    -3.0140   -23.9340 hc         1 UYK       0.062200
     54 H22          1.7600     0.4110   -25.6030 h1         1 UYK       0.043700
     55 H23          1.6880     1.6830   -24.3580 h1         1 UYK       0.043700
     56 H24         -1.3830    -1.1120   -24.4970 h1         1 UYK       0.043700
     57 H25         -0.0660    -1.2450   -25.6880 h1         1 UYK       0.043700
     58 H26          4.9850    -2.5110   -27.5950 h1         1 UYK       0.033700
     59 H27          6.0250    -3.6300   -26.6870 h1         1 UYK       0.033700
     60 H28          4.8550    -4.2620   -27.8730 h1         1 UYK       0.033700
     61 H29          3.7660    -5.6470   -26.0750 h1         1 UYK       0.033700
     62 H30          4.9630    -5.0170   -24.9170 h1         1 UYK       0.033700
     63 C17          8.6630    -7.7820   -18.5540 c3         1 UYK      -0.135400
@<TRIPOS>BOND
     1     1     2 1   
     2     1    24 1   
     3     1    28 1   
     4     1    33 1   
     5     2    34 1   
     6     2    35 1   
     7     2    36 1   
     8     3    12 1   
     9     3    26 2   
    10     3    28 1   
    11     4    16 ar  
    12     4    25 ar  
    13     4    37 1   
    14     5    14 ar  
    15     5    15 ar  
    16     5    38 1   
    17     6     7 2   
    18     6    14 1   
    19     6    18 1   
    20     7     8 1   
    21     7    29 1   
    22     8    42 1   
    23     8    43 1   
    24     8    44 1   
    25     9    13 ar  
    26     9    14 ar  
    27     9    31 1   
    28    10    31 1   
    29    10    45 1   
    30    10    46 1   
    31    10    47 1   
    32    11    13 ar  
    33    11    15 ar  
    34    11    17 ar  
    35    12    19 1   
    36    12    20 1   
    37    12    48 1   
    38    13    49 1   
    39    15    25 ar  
    40    16    17 ar  
    41    16    26 1   
    42    17    28 1   
    43    18    27 2   
    44    18    63 1   
    45    19    21 1   
    46    19    50 1   
    47    19    51 1   
    48    20    22 1   
    49    20    52 1   
    50    20    53 1   
    51    21    30 1   
    52    21    54 1   
    53    21    55 1   
    54    22    30 1   
    55    22    56 1   
    56    22    57 1   
    57    23    32 1   
    58    23    58 1   
    59    23    59 1   
    60    23    60 1   
    61    24    32 1   
    62    24    61 1   
    63    24    62 1   
    64    27    29 1   
    65    39    63 1   
    66    40    63 1   
    67    41    63 1   
@<TRIPOS>SUBSTRUCTURE
     1 UYK         1 TEMP              0 ****  ****    0 ROOT
