@<TRIPOS>MOLECULE
UYL
   23    24     1     0     0
SMALL
No Charge or Current Charge


@<TRIPOS>ATOM
      1 N1          10.3470     2.9460    -5.0150 n7         1 UYL      -0.868400
      2 C7           9.7200     1.6460    -5.3780 c6         1 UYL       0.157800
      3 C1           7.7710     2.6700    -4.0780 c6         1 UYL      -0.047400
      4 C5           7.0900     4.8290    -5.2750 c2         1 UYL       0.457200
      5 C6           9.5000     4.1120    -5.3460 c6         1 UYL       0.176800
      6 C4           7.7840     6.4300    -3.9120 c          1 UYL       0.664500
      7 C3           8.2310     5.1060    -3.2790 c5         1 UYL      -0.191400
      8 C2           8.1850     4.1230    -4.4930 c5         1 UYL      -0.153300
      9 O            8.3220     7.5220    -3.8340 o          1 UYL      -0.481100
     10 N            6.8890     6.0530    -4.9030 ne         1 UYL      -0.612100
     11 C            8.1820     1.6350    -5.1510 c6         1 UYL      -0.080400
     12 H1          11.2510     3.0250    -5.5000 hn         1 UYL       0.418000
     13 H3          10.1880     0.8520    -4.7780 h1         1 UYL       0.036700
     14 H4           9.9230     1.4180    -6.4350 h1         1 UYL       0.036700
     15 H5           6.6900     2.6150    -3.8880 hc         1 UYL       0.053700
     16 H6           8.2600     2.4040    -3.1290 hc         1 UYL       0.053700
     17 H7           6.4840     4.3700    -6.0530 h4         1 UYL       0.035800
     18 H8          10.0650     5.0410    -5.1800 h1         1 UYL       0.038200
     19 H9           9.2530     4.0730    -6.4180 h1         1 UYL       0.038200
     20 H10          7.4560     4.8100    -2.5620 hc         1 UYL       0.088200
     21 H11          9.2000     5.1950    -2.7760 hc         1 UYL       0.088200
     22 H12          7.6690     1.8660    -6.0950 hc         1 UYL       0.044200
     23 H13          7.8550     0.6280    -4.8600 hc         1 UYL       0.044200
@<TRIPOS>BOND
     1     1     2 1   
     2     1     5 1   
     3     1    12 1   
     4     2    11 1   
     5     2    13 1   
     6     2    14 1   
     7     3     8 1   
     8     3    11 1   
     9     3    15 1   
    10     3    16 1   
    11     4     8 1   
    12     4    10 2   
    13     4    17 1   
    14     5     8 1   
    15     5    18 1   
    16     5    19 1   
    17     6     7 1   
    18     6     9 2   
    19     6    10 1   
    20     7     8 1   
    21     7    20 1   
    22     7    21 1   
    23    11    22 1   
    24    11    23 1   
@<TRIPOS>SUBSTRUCTURE
     1 UYL         1 TEMP              0 ****  ****    0 ROOT
