@<TRIPOS>MOLECULE
UYL
   23    24     1     0     0
SMALL
abcg2


@<TRIPOS>ATOM
      1 N1          10.2920     2.8800    -4.9460 n7         1 UYL      -0.868400
      2 C7           9.6630     1.5950    -5.2990 c6         1 UYL       0.157800
      3 C1           7.7590     2.7530    -4.1190 c6         1 UYL      -0.047400
      4 C5           7.1890     4.8860    -5.3530 c2         1 UYL       0.457200
      5 C6           9.5150     4.0110    -5.4330 c6         1 UYL       0.176800
      6 C4           7.6190     6.3580    -3.7940 c          1 UYL       0.664500
      7 C3           8.4240     5.1370    -3.3860 c5         1 UYL      -0.191400
      8 C2           8.2410     4.1610    -4.5560 c5         1 UYL      -0.153300
      9 O            7.5810     7.4330    -3.2450 o          1 UYL      -0.481100
     10 N            6.8520     6.0610    -4.9670 ne         1 UYL      -0.612100
     11 C            8.1340     1.6940    -5.1510 c6         1 UYL      -0.080400
     12 H1          11.2310     2.9190    -5.3220 hn         1 UYL       0.418000
     13 H3          10.0560     0.8300    -4.6260 h1         1 UYL       0.036700
     14 H4           9.9080     1.2910    -6.3250 h1         1 UYL       0.036700
     15 H5           6.6810     2.7660    -3.9430 hc         1 UYL       0.053700
     16 H6           8.2320     2.5160    -3.1650 hc         1 UYL       0.053700
     17 H7           6.7360     4.4410    -6.2360 h4         1 UYL       0.035800
     18 H8          10.1120     4.9200    -5.3650 h1         1 UYL       0.038200
     19 H9           9.2240     3.8940    -6.4880 h1         1 UYL       0.038200
     20 H10          7.9950     4.7490    -2.4580 hc         1 UYL       0.088200
     21 H11          9.4600     5.4030    -3.1850 hc         1 UYL       0.088200
     22 H12          7.6800     1.9480    -6.1120 hc         1 UYL       0.044200
     23 H13          7.7290     0.7230    -4.8640 hc         1 UYL       0.044200
@<TRIPOS>BOND
     1     1     2 1   
     2     1     5 1   
     3     1    12 1   
     4     2    11 1   
     5     2    13 1   
     6     2    14 1   
     7     3     8 1   
     8     3    11 1   
     9     3    15 1   
    10     3    16 1   
    11     4     8 1   
    12     4    10 2   
    13     4    17 1   
    14     5     8 1   
    15     5    18 1   
    16     5    19 1   
    17     6     7 1   
    18     6     9 2   
    19     6    10 1   
    20     7     8 1   
    21     7    20 1   
    22     7    21 1   
    23    11    22 1   
    24    11    23 1   
@<TRIPOS>SUBSTRUCTURE
     1 UYL         1 TEMP              0 ****  ****    0 ROOT
