@<TRIPOS>MOLECULE
UYM
   48    52     1     0     0
SMALL
No Charge or Current Charge


@<TRIPOS>ATOM
      1 N          -17.9440    39.6530   -20.8890 na         1 UYM      -0.221200
      2 C          -21.2670    34.5510   -21.3400 c          1 UYM       0.569000
      3 O          -20.7850    33.6120   -21.9550 o          1 UYM      -0.569500
      4 C1         -20.7880    36.0190   -21.5490 c6         1 UYM       0.038700
      5 C10        -17.5920    40.3280   -23.2700 ca         1 UYM      -0.128000
      6 C11        -22.8510    35.3330   -19.5110 c6         1 UYM       0.038700
      7 C12        -22.4050    34.9770   -18.0620 c3         1 UYM      -0.012700
      8 C15        -22.5020    36.8140   -19.8430 c          1 UYM       0.569000
      9 C2         -19.3050    36.1560   -21.1070 c3         1 UYM      -0.012700
     10 C3         -18.7380    37.5390   -21.2940 cc         1 UYM      -0.159900
     11 C34        -20.9150    34.9890   -17.8220 cc         1 UYM      -0.159900
     12 C35        -20.0310    33.9290   -17.9980 cd         1 UYM      -0.146100
     13 C37        -18.8250    35.6610   -17.2660 ca         1 UYM      -0.052200
     14 C38        -20.1210    36.0890   -17.3480 ca         1 UYM      -0.096300
     15 C39        -20.4900    37.3940   -16.9860 ca         1 UYM      -0.061000
     16 C4         -18.4240    38.4580   -20.2990 cd         1 UYM      -0.146100
     17 C40        -19.4790    38.2690   -16.5380 ca         1 UYM      -0.144500
     18 C41        -18.1360    37.8290   -16.4590 ca         1 UYM      -0.096500
     19 C42        -17.7990    36.5090   -16.8270 ca         1 UYM      -0.128000
     20 C5         -17.9730    39.4400   -22.2540 ca         1 UYM      -0.052200
     21 C6         -18.4400    38.1880   -22.5390 ca         1 UYM      -0.096300
     22 C7         -18.5570    37.7230   -23.8580 ca         1 UYM      -0.061000
     23 C8         -18.1820    38.5960   -24.9010 ca         1 UYM      -0.144500
     24 C9         -17.7020    39.8940   -24.6090 ca         1 UYM      -0.096500
     25 N1         -21.6320    37.0430   -20.8830 ns         1 UYM      -0.490400
     26 N2         -22.3250    34.3440   -20.4860 ns         1 UYM      -0.490400
     27 N36        -18.7190    34.3400   -17.6580 na         1 UYM      -0.221200
     28 O1         -23.0350    37.7550   -19.2750 o          1 UYM      -0.569500
     29 H1         -17.6420    40.4950   -20.4080 hn         1 UYM       0.353000
     30 H2         -20.8460    36.1980   -22.6310 h1         1 UYM       0.082200
     31 H3         -17.2220    41.3230   -23.0360 ha         1 UYM       0.114500
     32 H4         -23.9480    35.2800   -19.5500 h1         1 UYM       0.082200
     33 H5         -22.8900    35.6610   -17.3540 hc         1 UYM       0.064200
     34 H6         -22.7930    33.9830   -17.8060 hc         1 UYM       0.064200
     35 H7         -18.6860    35.4410   -21.6620 hc         1 UYM       0.064200
     36 H8         -19.2110    35.8720   -20.0540 hc         1 UYM       0.064200
     37 H9         -20.2390    32.9170   -18.3390 h4         1 UYM       0.222500
     38 H10        -21.5250    37.7230   -17.0410 ha         1 UYM       0.124000
     39 H11        -18.5150    38.3490   -19.2210 h4         1 UYM       0.222500
     40 H12        -19.7330    39.2860   -16.2490 ha         1 UYM       0.112500
     41 H13        -17.3620    38.5100   -16.1120 ha         1 UYM       0.110000
     42 H14        -16.7700    36.1600   -16.7660 ha         1 UYM       0.114500
     43 H15        -18.9220    36.7210   -24.0720 ha         1 UYM       0.124000
     44 H16        -18.2610    38.2670   -25.9350 ha         1 UYM       0.112500
     45 H17        -17.4140    40.5610   -25.4190 ha         1 UYM       0.110000
     46 H18        -21.4410    38.0170   -21.0860 hn         1 UYM       0.323500
     47 H19        -22.6490    33.3860   -20.4210 hn         1 UYM       0.323500
     48 H20        -17.8740    33.7770   -17.6850 hn         1 UYM       0.353000
@<TRIPOS>BOND
     1     1    16 1   
     2     1    20 1   
     3     1    29 1   
     4     2     3 2   
     5     2     4 1   
     6     2    26 1   
     7     4     9 1   
     8     4    25 1   
     9     4    30 1   
    10     5    20 ar  
    11     5    24 ar  
    12     5    31 1   
    13     6     7 1   
    14     6     8 1   
    15     6    26 1   
    16     6    32 1   
    17     7    11 1   
    18     7    33 1   
    19     7    34 1   
    20     8    25 1   
    21     8    28 2   
    22     9    10 1   
    23     9    35 1   
    24     9    36 1   
    25    10    16 2   
    26    10    21 1   
    27    11    12 2   
    28    11    14 1   
    29    12    27 1   
    30    12    37 1   
    31    13    14 ar  
    32    13    19 ar  
    33    13    27 1   
    34    14    15 ar  
    35    15    17 ar  
    36    15    38 1   
    37    16    39 1   
    38    17    18 ar  
    39    17    40 1   
    40    18    19 ar  
    41    18    41 1   
    42    19    42 1   
    43    20    21 ar  
    44    21    22 ar  
    45    22    23 ar  
    46    22    43 1   
    47    23    24 ar  
    48    23    44 1   
    49    24    45 1   
    50    25    46 1   
    51    26    47 1   
    52    27    48 1   
@<TRIPOS>SUBSTRUCTURE
     1 UYM         1 TEMP              0 ****  ****    0 ROOT
