@<TRIPOS>MOLECULE
UYM
   48    52     1     0     0
SMALL
bcc


@<TRIPOS>ATOM
      1 N          -18.0880    39.5690   -20.8540 na         1 UYM      -0.170900
      2 C          -21.2690    34.5640   -21.2810 c          1 UYM       0.711500
      3 O          -20.7480    33.6480   -21.9000 o          1 UYM      -0.645000
      4 C1         -20.7720    35.9790   -21.4780 c6         1 UYM       0.038700
      5 C10        -17.6490    40.3340   -23.1990 ca         1 UYM      -0.146000
      6 C11        -22.8400    35.3420   -19.5120 c6         1 UYM       0.038700
      7 C12        -22.4140    35.0100   -18.0680 c3         1 UYM      -0.012700
      8 C15        -22.5000    36.7740   -19.8600 c          1 UYM       0.711500
      9 C2         -19.2880    36.0930   -21.0790 c3         1 UYM      -0.012700
     10 C3         -18.7590    37.4720   -21.2710 cc         1 UYM      -0.159900
     11 C34        -20.9400    35.0420   -17.8460 cc         1 UYM      -0.159900
     12 C35        -20.0640    34.0120   -18.0550 cd         1 UYM      -0.096100
     13 C37        -18.8060    35.7100   -17.3540 ca         1 UYM      -0.052200
     14 C38        -20.1480    36.1500   -17.3950 ca         1 UYM      -0.096300
     15 C39        -20.4430    37.4610   -17.0010 ca         1 UYM      -0.079000
     16 C4         -18.5250    38.4010   -20.2960 cd         1 UYM      -0.096100
     17 C40        -19.4140    38.2830   -16.5850 ca         1 UYM      -0.162500
     18 C41        -18.0860    37.8250   -16.5570 ca         1 UYM      -0.114500
     19 C42        -17.7630    36.5390   -16.9410 ca         1 UYM      -0.146000
     20 C5         -18.0320    39.4290   -22.2100 ca         1 UYM      -0.052200
     21 C6         -18.4510    38.1150   -22.5150 ca         1 UYM      -0.096300
     22 C7         -18.4820    37.7030   -23.8530 ca         1 UYM      -0.079000
     23 C8         -18.1020    38.5950   -24.8360 ca         1 UYM      -0.162500
     24 C9         -17.6890    39.8980   -24.5100 ca         1 UYM      -0.114500
     25 N1         -21.5820    36.9700   -20.8100 ns         1 UYM      -0.557400
     26 N2         -22.3070    34.3880   -20.4540 ns         1 UYM      -0.557400
     27 N36        -18.7910    34.4100   -17.7650 na         1 UYM      -0.170900
     28 O1         -23.0710    37.6890   -19.2850 o          1 UYM      -0.645000
     29 H1         -17.8390    40.3970   -20.3390 hn         1 UYM       0.302700
     30 H2         -20.8450    36.1670   -22.5550 h1         1 UYM       0.082200
     31 H3         -17.3300    41.3380   -22.9510 ha         1 UYM       0.132500
     32 H4         -23.9310    35.2760   -19.5550 h1         1 UYM       0.082200
     33 H5         -22.9240    35.7020   -17.3950 hc         1 UYM       0.064200
     34 H6         -22.8090    34.0180   -17.8380 hc         1 UYM       0.064200
     35 H7         -18.7230    35.3780   -21.6800 hc         1 UYM       0.064200
     36 H8         -19.1750    35.7960   -20.0350 hc         1 UYM       0.064200
     37 H9         -20.2620    33.0050   -18.3870 h4         1 UYM       0.172500
     38 H10        -21.4620    37.8270   -17.0280 ha         1 UYM       0.142000
     39 H11        -18.6370    38.3120   -19.2250 h4         1 UYM       0.172500
     40 H12        -19.6300    39.2980   -16.2790 ha         1 UYM       0.130500
     41 H13        -17.3010    38.4950   -16.2310 ha         1 UYM       0.128000
     42 H14        -16.7390    36.1860   -16.9200 ha         1 UYM       0.132500
     43 H15        -18.8000    36.7000   -24.1130 ha         1 UYM       0.142000
     44 H16        -18.1200    38.2910   -25.8740 ha         1 UYM       0.130500
     45 H17        -17.3980    40.5750   -25.3030 ha         1 UYM       0.128000
     46 H18        -21.3580    37.9340   -21.0200 hn         1 UYM       0.323500
     47 H19        -22.6220    33.4330   -20.3410 hn         1 UYM       0.323500
     48 H20        -17.9740    33.8260   -17.8350 hn         1 UYM       0.302700
@<TRIPOS>BOND
     1     1    16 1   
     2     1    20 1   
     3     1    29 1   
     4     2     3 2   
     5     2     4 1   
     6     2    26 1   
     7     4     9 1   
     8     4    25 1   
     9     4    30 1   
    10     5    20 ar  
    11     5    24 ar  
    12     5    31 1   
    13     6     7 1   
    14     6     8 1   
    15     6    26 1   
    16     6    32 1   
    17     7    11 1   
    18     7    33 1   
    19     7    34 1   
    20     8    25 1   
    21     8    28 2   
    22     9    10 1   
    23     9    35 1   
    24     9    36 1   
    25    10    16 2   
    26    10    21 1   
    27    11    12 2   
    28    11    14 1   
    29    12    27 1   
    30    12    37 1   
    31    13    14 ar  
    32    13    19 ar  
    33    13    27 1   
    34    14    15 ar  
    35    15    17 ar  
    36    15    38 1   
    37    16    39 1   
    38    17    18 ar  
    39    17    40 1   
    40    18    19 ar  
    41    18    41 1   
    42    19    42 1   
    43    20    21 ar  
    44    21    22 ar  
    45    22    23 ar  
    46    22    43 1   
    47    23    24 ar  
    48    23    44 1   
    49    24    45 1   
    50    25    46 1   
    51    26    47 1   
    52    27    48 1   
@<TRIPOS>SUBSTRUCTURE
     1 UYM         1 TEMP              0 ****  ****    0 ROOT
