@<TRIPOS>MOLECULE
UYN
   42    42     1     0     0
SMALL
abcg2


@<TRIPOS>ATOM
      1 CAB         45.1960   -36.3000    -9.1990 ca         1 UYN       0.311000
      2 CAC         45.5790   -36.9160    -8.0090 ca         1 UYN      -0.120000
      3 CAD         46.8700   -36.7630    -7.5050 ca         1 UYN      -0.114400
      4 CAE         47.7910   -35.9860    -8.1970 ca         1 UYN      -0.099000
      5 CAF         47.4240   -35.3590    -9.3900 ca         1 UYN      -0.114400
      6 CAG         46.1370   -35.5200    -9.8840 ca         1 UYN      -0.120000
      7 CAH         48.4040   -34.5140   -10.1090 ce         1 UYN       0.498900
      8 CAI         48.2830   -34.2840   -11.5850 c3         1 UYN      -0.191900
      9 CAL         51.2710   -32.7850    -9.1770 cz         1 UYN       0.955100
     10 CAO         47.2600   -37.4160    -6.2320 ce         1 UYN       0.498900
     11 CAP         48.7150   -37.5020    -5.8860 c3         1 UYN      -0.191900
     12 CAS         45.4610   -38.9080    -3.6480 cz         1 UYN       0.955100
     13 NAA         43.9400   -36.4980    -9.7230 nv         1 UYN      -1.059000
     14 NAJ         49.3380   -34.0240    -9.3900 n2         1 UYN      -0.570600
     15 NAK         50.2910   -33.2630    -9.9630 nu         1 UYN      -0.647600
     16 NAM         51.2510   -33.0480    -7.8860 nv         1 UYN      -0.593550
     17 NAN         52.2290   -32.0560    -9.7220 nv         1 UYN      -0.593550
     18 NAQ         46.2940   -37.8460    -5.5170 n2         1 UYN      -0.570600
     19 NAR         46.5200   -38.4540    -4.3380 nu         1 UYN      -0.647600
     20 NAT         44.2470   -38.7310    -4.1260 nv         1 UYN      -0.593550
     21 NAU         45.6720   -39.5210    -2.4960 nv         1 UYN      -0.593550
     22 HAC         44.8630   -37.5320    -7.4800 ha         1 UYN       0.131000
     23 HAE         48.7980   -35.8560    -7.8290 ha         1 UYN       0.119000
     24 HAG         45.8340   -35.0320   -10.8030 ha         1 UYN       0.131000
     25 HAI         49.2190   -34.5260   -12.0940 hc         1 UYN       0.074700
     26 HAJ         47.5130   -34.9000   -12.0380 hc         1 UYN       0.074700
     27 HAK         48.0500   -33.2390   -11.8050 hc         1 UYN       0.074700
     28 HAQ         48.9440   -38.2290    -5.1090 hc         1 UYN       0.074700
     29 HAR         49.3000   -37.7860    -6.7590 hc         1 UYN       0.074700
     30 HAP         49.0840   -36.5330    -5.5450 hc         1 UYN       0.074700
     31 HAA         43.2260   -36.7710    -9.0670 hn         1 UYN       0.471500
     32 HAU         43.6130   -35.7980   -10.3700 hn         1 UYN       0.471500
     33 HAS         50.2920   -33.0390   -10.9520 hn         1 UYN       0.368000
     34 HAM         51.9730   -32.7090    -7.2730 hn         1 UYN       0.386625
     35 HAV         50.4990   -33.5950    -7.4980 hn         1 UYN       0.386625
     36 HAN         52.9890   -31.6980    -9.1670 hn         1 UYN       0.386625
     37 HAT         47.4470   -38.5770    -3.9500 hn         1 UYN       0.368000
     38 HAW         43.4370   -39.0730    -3.6350 hn         1 UYN       0.386625
     39 HAZ         44.9050   -39.8830    -1.9520 hn         1 UYN       0.386625
     40 HA0         46.6020   -39.6910    -2.1500 hn         1 UYN       0.386625
     41 HAY         52.2760   -31.9060   -10.7170 hn         1 UYN       0.386625
     42 HAX         44.1180   -38.2520    -5.0030 hn         1 UYN       0.386625
@<TRIPOS>BOND
     1     1     2 ar  
     2     1     6 ar  
     3     1    13 1   
     4     2     3 ar  
     5     2    22 1   
     6     3     4 ar  
     7     3    10 1   
     8     4     5 ar  
     9     4    23 1   
    10     5     6 ar  
    11     5     7 1   
    12     6    24 1   
    13     7     8 1   
    14     7    14 2   
    15     8    25 1   
    16     8    26 1   
    17     8    27 1   
    18     9    15 2   
    19     9    16 1   
    20     9    17 1   
    21    10    11 1   
    22    10    18 2   
    23    11    28 1   
    24    11    29 1   
    25    11    30 1   
    26    12    19 2   
    27    12    20 1   
    28    12    21 1   
    29    13    31 1   
    30    13    32 1   
    31    14    15 1   
    32    15    33 1   
    33    16    34 1   
    34    16    35 1   
    35    17    36 1   
    36    17    41 1   
    37    18    19 1   
    38    19    37 1   
    39    20    38 1   
    40    20    42 1   
    41    21    39 1   
    42    21    40 1   
@<TRIPOS>SUBSTRUCTURE
     1 UYN         1 TEMP              0 ****  ****    0 ROOT
