@<TRIPOS>MOLECULE
UYN
   42    42     1     0     0
SMALL
No Charge or Current Charge


@<TRIPOS>ATOM
      1 CAB         45.1840   -36.3020    -9.3600 ca         1 UYN       0.311000
      2 CAC         45.5130   -37.0290    -8.2070 ca         1 UYN      -0.120000
      3 CAD         46.8190   -36.9840    -7.6690 ca         1 UYN      -0.114400
      4 CAE         47.7780   -36.1580    -8.2990 ca         1 UYN      -0.099000
      5 CAF         47.4720   -35.4410    -9.4790 ca         1 UYN      -0.114400
      6 CAG         46.1560   -35.5120    -9.9890 ca         1 UYN      -0.120000
      7 CAH         48.4940   -34.5410   -10.1200 ce         1 UYN       0.498900
      8 CAI         48.5100   -34.4360   -11.6370 c3         1 UYN      -0.191900
      9 CAL         51.2590   -32.4520    -9.0910 cz         1 UYN       0.955100
     10 CAO         47.1530   -37.7200    -6.4010 ce         1 UYN       0.498900
     11 CAP         48.5430   -38.3220    -6.2610 c3         1 UYN      -0.191900
     12 CAS         45.4820   -38.7140    -3.3530 cz         1 UYN       0.955100
     13 NAA         43.9100   -36.3570    -9.8670 nv         1 UYN      -1.059000
     14 NAJ         49.4060   -33.9780    -9.3640 n2         1 UYN      -0.570600
     15 NAK         50.3220   -33.0430    -9.8500 nu         1 UYN      -0.647600
     16 NAM         51.3470   -32.7320    -7.8180 nv         1 UYN      -0.593550
     17 NAN         52.0840   -31.5900    -9.6210 nv         1 UYN      -0.593550
     18 NAQ         46.2040   -37.9250    -5.5190 n2         1 UYN      -0.570600
     19 NAR         46.4410   -38.4990    -4.2680 nu         1 UYN      -0.647600
     20 NAT         44.2470   -38.3720    -3.6010 nv         1 UYN      -0.593550
     21 NAU         45.7830   -39.2630    -2.2060 nv         1 UYN      -0.593550
     22 HAC         44.7490   -37.6380    -7.7300 ha         1 UYN       0.131000
     23 HAE         48.7750   -36.0720    -7.8700 ha         1 UYN       0.119000
     24 HAG         45.8780   -34.9370   -10.8680 ha         1 UYN       0.131000
     25 HAI         49.5130   -34.6300   -12.0340 hc         1 UYN       0.074700
     26 HAJ         47.8410   -35.1640   -12.1080 hc         1 UYN       0.074700
     27 HAK         48.2020   -33.4360   -11.9630 hc         1 UYN       0.074700
     28 HAQ         48.4870   -39.3820    -5.9900 hc         1 UYN       0.074700
     29 HAR         49.1120   -38.2680    -7.1950 hc         1 UYN       0.074700
     30 HAP         49.1190   -37.8020    -5.4870 hc         1 UYN       0.074700
     31 HAA         43.1690   -36.8110    -9.3350 hn         1 UYN       0.471500
     32 HAU         43.6280   -35.7230   -10.6130 hn         1 UYN       0.471500
     33 HAS         50.3170   -32.7530   -10.8270 hn         1 UYN       0.368000
     34 HAM         51.9850   -32.2670    -7.1970 hn         1 UYN       0.386625
     35 HAV         50.6890   -33.3790    -7.4170 hn         1 UYN       0.386625
     36 HAN         52.8120   -31.1500    -9.0820 hn         1 UYN       0.386625
     37 HAT         47.3770   -38.7820    -3.9840 hn         1 UYN       0.368000
     38 HAW         43.5050   -38.4650    -2.9290 hn         1 UYN       0.386625
     39 HAZ         45.0830   -39.4540    -1.5090 hn         1 UYN       0.386625
     40 HA0         46.7230   -39.5470    -1.9840 hn         1 UYN       0.386625
     41 HAY         52.0510   -31.3560   -10.5990 hn         1 UYN       0.386625
     42 HAX         44.0320   -37.9320    -4.4800 hn         1 UYN       0.386625
@<TRIPOS>BOND
     1     1     2 ar  
     2     1     6 ar  
     3     1    13 1   
     4     2     3 ar  
     5     2    22 1   
     6     3     4 ar  
     7     3    10 1   
     8     4     5 ar  
     9     4    23 1   
    10     5     6 ar  
    11     5     7 1   
    12     6    24 1   
    13     7     8 1   
    14     7    14 2   
    15     8    25 1   
    16     8    26 1   
    17     8    27 1   
    18     9    15 2   
    19     9    16 1   
    20     9    17 1   
    21    10    11 1   
    22    10    18 2   
    23    11    28 1   
    24    11    29 1   
    25    11    30 1   
    26    12    19 2   
    27    12    20 1   
    28    12    21 1   
    29    13    31 1   
    30    13    32 1   
    31    14    15 1   
    32    15    33 1   
    33    16    34 1   
    34    16    35 1   
    35    17    36 1   
    36    17    41 1   
    37    18    19 1   
    38    19    37 1   
    39    20    38 1   
    40    20    42 1   
    41    21    39 1   
    42    21    40 1   
@<TRIPOS>SUBSTRUCTURE
     1 UYN         1 TEMP              0 ****  ****    0 ROOT
