@<TRIPOS>MOLECULE
UYO
   75    77     1     0     0
SMALL
abcg2


@<TRIPOS>ATOM
      1 C1         -26.8260    16.7960    -6.4170 c3         1 UYO      -0.046700
      2 C2         -26.3730    17.8600    -7.4300 c3         1 UYO      -0.072400
      3 C3         -25.6000    17.2760    -8.6120 c3         1 UYO      -0.080400
      4 C4         -25.1510    18.3630    -9.5850 c3         1 UYO      -0.086400
      5 C5         -24.2980    17.8980   -10.7740 c3         1 UYO       0.011000
      6 C6         -23.8300    19.0920   -11.6050 c3         1 UYO      -0.100100
      7 C11        -30.2350    17.6850    -4.8930 c5         1 UYO      -0.036500
      8 C13        -28.0130    18.6710    -4.9880 c5         1 UYO      -0.073400
      9 C15        -32.1910    16.1960    -5.2260 c6         1 UYO      -0.042200
     10 C16        -31.3890    15.3740    -6.2560 c6         1 UYO      -0.070400
     11 C17        -29.8710    15.5140    -6.0820 c6         1 UYO      -0.064400
     12 C19        -33.9230    18.7420    -5.4190 ce         1 UYO      -0.162000
     13 C23        -36.3860    22.0460    -4.6850 c6         1 UYO      -0.062400
     14 C24        -34.8650    22.1210    -4.5540 c6         1 UYO       0.208500
     15 C25        -34.1920    21.2280    -5.5800 cf         1 UYO      -0.113200
     16 C26        -33.2770    21.6740    -6.4400 c2         1 UYO      -0.304000
     17 N          -23.0140    17.2690   -10.1700 no         1 UYO       0.550000
     18 C          -25.6380    16.3420    -5.5580 c3         1 UYO      -0.091100
     19 O          -22.3250    17.9800    -9.4550 o          1 UYO      -0.402500
     20 C12        -29.4990    19.0090    -4.6860 c5         1 UYO      -0.069400
     21 C14        -31.7130    17.6240    -5.1210 c2         1 UYO      -0.078400
     22 C20        -34.6950    19.8360    -5.5640 cf         1 UYO      -0.069200
     23 C21        -36.1960    19.7330    -5.6660 c6         1 UYO      -0.070200
     24 C22        -36.9050    20.6170    -4.6340 c6         1 UYO       0.174300
     25 C7         -24.9950    16.8630   -11.6400 c3         1 UYO      -0.100100
     26 C8         -28.0010    17.2090    -5.5070 c5         1 UYO      -0.055700
     27 C9         -29.4390    16.9820    -6.0300 c5         1 UYO      -0.044000
     28 O1         -22.7440    16.1070   -10.4240 o          1 UYO      -0.402500
     29 O2         -36.7010    20.1320    -3.2980 oh         1 UYO      -0.665000
     30 O3         -34.5020    23.4950    -4.6520 oh         1 UYO      -0.663000
     31 H1         -27.1650    15.9260    -6.9920 hc         1 UYO       0.045700
     32 H2         -25.7460    18.5990    -6.9210 hc         1 UYO       0.043200
     33 H3         -27.2310    18.4070    -7.8200 hc         1 UYO       0.043200
     34 H4         -26.2360    16.5500    -9.1250 hc         1 UYO       0.048200
     35 H5         -24.7290    16.7250    -8.2460 hc         1 UYO       0.048200
     36 H6         -24.5950    19.1310    -9.0440 hc         1 UYO       0.064200
     37 H7         -26.0270    18.8550   -10.0180 hc         1 UYO       0.064200
     38 H8         -23.3290    19.8310   -10.9830 hc         1 UYO       0.061033
     39 H9         -23.1560    18.7730   -12.4010 hc         1 UYO       0.061033
     40 H10        -24.7070    19.5530   -12.0600 hc         1 UYO       0.061033
     41 H11        -30.0420    17.0700    -4.0030 hc         1 UYO       0.052700
     42 H12        -27.3850    18.7740    -4.1010 hc         1 UYO       0.042700
     43 H13        -27.6150    19.3570    -5.7340 hc         1 UYO       0.042700
     44 H14        -33.2520    16.1360    -5.4610 hc         1 UYO       0.045700
     45 H15        -32.0560    15.7280    -4.2420 hc         1 UYO       0.045700
     46 H16        -31.6770    15.6890    -7.2630 hc         1 UYO       0.040700
     47 H17        -31.6750    14.3230    -6.1690 hc         1 UYO       0.040700
     48 H18        -29.5700    15.0320    -5.1450 hc         1 UYO       0.041200
     49 H19        -29.3580    14.9870    -6.8910 hc         1 UYO       0.041200
     50 H20        -32.0080    19.6850    -5.1350 ha         1 UYO       0.176000
     51 H22        -34.4370    17.7870    -5.4180 ha         1 UYO       0.166000
     52 H25        -36.8450    22.6350    -3.8880 hc         1 UYO       0.064200
     53 H26        -34.5840    21.7420    -3.5630 h1         1 UYO       0.056700
     54 H28        -32.9620    22.7090    -6.4430 ha         1 UYO       0.169000
     55 H29        -32.8300    21.0140    -7.1710 ha         1 UYO       0.169000
     56 H31        -25.9180    15.5050    -4.9150 hc         1 UYO       0.035367
     57 H32        -24.7910    16.0240    -6.1690 hc         1 UYO       0.035367
     58 H33        -25.2970    17.1600    -4.9160 hc         1 UYO       0.035367
     59 H37        -29.6430    19.3970    -3.6760 hc         1 UYO       0.044200
     60 H38        -29.8620    19.7720    -5.3760 hc         1 UYO       0.044200
     61 H41        -36.5230    20.0680    -6.6580 hc         1 UYO       0.052200
     62 H42        -36.5190    18.6960    -5.5510 hc         1 UYO       0.052200
     63 H43        -37.9780    20.6210    -4.8540 h1         1 UYO       0.037700
     64 H44        -25.2630    15.9700   -11.0800 hc         1 UYO       0.061033
     65 H45        -25.9090    17.3170   -12.0260 hc         1 UYO       0.061033
     66 H46        -24.3710    16.5720   -12.4840 hc         1 UYO       0.061033
     67 H47        -27.9340    16.5630    -4.6250 hc         1 UYO       0.044700
     68 H48        -36.9830    19.2090    -3.2660 ho         1 UYO       0.440000
     69 H49        -33.5720    23.5870    -4.4080 ho         1 UYO       0.443000
     70 C18        -32.4880    18.7180    -5.2230 ce         1 UYO      -0.189000
     71 C10        -29.6900    17.6560    -7.3860 c3         1 UYO      -0.076100
     72 H24        -36.6740    22.4920    -5.6410 hc         1 UYO       0.064200
     73 H34        -29.3910    18.7030    -7.3840 hc         1 UYO       0.034033
     74 H35        -29.1290    17.1470    -8.1720 hc         1 UYO       0.034033
     75 H36        -30.7450    17.6220    -7.6540 hc         1 UYO       0.034033
@<TRIPOS>BOND
     1     1     2 1   
     2     1    18 1   
     3     1    26 1   
     4     1    31 1   
     5     2     3 1   
     6     2    32 1   
     7     2    33 1   
     8     3     4 1   
     9     3    34 1   
    10     3    35 1   
    11     4     5 1   
    12     4    36 1   
    13     4    37 1   
    14     5     6 1   
    15     5    17 1   
    16     5    25 1   
    17     6    38 1   
    18     6    39 1   
    19     6    40 1   
    20     7    20 1   
    21     7    21 1   
    22     7    27 1   
    23     7    41 1   
    24     8    20 1   
    25     8    26 1   
    26     8    42 1   
    27     8    43 1   
    28     9    10 1   
    29     9    21 1   
    30     9    44 1   
    31     9    45 1   
    32    10    11 1   
    33    10    46 1   
    34    10    47 1   
    35    11    27 1   
    36    11    48 1   
    37    11    49 1   
    38    12    22 2   
    39    12    51 1   
    40    12    70 1   
    41    13    14 1   
    42    13    24 1   
    43    13    52 1   
    44    13    72 1   
    45    14    15 1   
    46    14    30 1   
    47    14    53 1   
    48    15    16 2   
    49    15    22 1   
    50    16    54 1   
    51    16    55 1   
    52    17    19 1   
    53    17    28 1   
    54    18    56 1   
    55    18    57 1   
    56    18    58 1   
    57    20    59 1   
    58    20    60 1   
    59    21    70 2   
    60    22    23 1   
    61    23    24 1   
    62    23    61 1   
    63    23    62 1   
    64    24    29 1   
    65    24    63 1   
    66    25    64 1   
    67    25    65 1   
    68    25    66 1   
    69    26    27 1   
    70    26    67 1   
    71    27    71 1   
    72    29    68 1   
    73    30    69 1   
    74    50    70 1   
    75    71    73 1   
    76    71    74 1   
    77    71    75 1   
@<TRIPOS>SUBSTRUCTURE
     1 UYO         1 TEMP              0 ****  ****    0 ROOT
