@<TRIPOS>MOLECULE
UYO
   75    77     1     0     0
SMALL
No Charge or Current Charge


@<TRIPOS>ATOM
      1 C1         -26.8470    16.8400    -6.4790 c3         1 UYO      -0.046700
      2 C2         -26.5260    17.6850    -7.7530 c3         1 UYO      -0.072400
      3 C3         -25.2930    17.2150    -8.5650 c3         1 UYO      -0.080400
      4 C4         -25.1350    17.9820    -9.9050 c3         1 UYO      -0.086400
      5 C5         -23.8700    17.6220   -10.7540 c3         1 UYO       0.011000
      6 C6         -23.8430    18.5000   -12.0370 c3         1 UYO      -0.100100
      7 C11        -30.3560    17.6270    -5.0520 c5         1 UYO      -0.036500
      8 C13        -28.1670    18.7190    -5.0960 c5         1 UYO      -0.073400
      9 C15        -32.4050    16.2020    -5.8050 c6         1 UYO      -0.042200
     10 C16        -31.5210    15.5330    -6.8970 c6         1 UYO      -0.070400
     11 C17        -30.0000    15.6350    -6.5910 c6         1 UYO      -0.064400
     12 C19        -34.0900    18.7640    -5.2120 ce         1 UYO      -0.162000
     13 C23        -36.5060    22.1710    -4.2580 c6         1 UYO      -0.062400
     14 C24        -34.9720    22.1970    -4.0600 c6         1 UYO       0.208500
     15 C25        -34.2770    21.2720    -5.0940 cf         1 UYO      -0.113200
     16 C26        -33.2520    21.6860    -5.8840 c2         1 UYO      -0.304000
     17 N          -22.5710    17.9410    -9.9300 no         1 UYO       0.550000
     18 C          -25.6170    16.7840    -5.5300 c3         1 UYO      -0.091100
     19 O          -22.4640    19.0740    -9.4410 o          1 UYO      -0.402500
     20 C12        -29.6840    19.0180    -4.8260 c5         1 UYO      -0.069400
     21 C14        -31.8710    17.5660    -5.3400 c2         1 UYO      -0.078400
     22 C20        -34.8280    19.9140    -5.1880 cf         1 UYO      -0.069200
     23 C21        -36.3670    19.8420    -5.2730 c6         1 UYO      -0.070200
     24 C22        -37.0660    20.7310    -4.2140 c6         1 UYO       0.174300
     25 C7         -23.9040    16.1210   -11.1800 c3         1 UYO      -0.100100
     26 C8         -28.1340    17.2560    -5.6740 c5         1 UYO      -0.055700
     27 C9         -29.5730    17.1060    -6.3050 c5         1 UYO      -0.044000
     28 O1         -21.6750    17.0880    -9.8830 o          1 UYO      -0.402500
     29 O2         -36.9090    20.1710    -2.9030 oh         1 UYO      -0.665000
     30 O3         -34.5170    23.5560    -4.0960 oh         1 UYO      -0.663000
     31 H1         -27.0100    15.8110    -6.8230 hc         1 UYO       0.045700
     32 H2         -26.3840    18.7360    -7.4770 hc         1 UYO       0.043200
     33 H3         -27.3760    17.6480    -8.4350 hc         1 UYO       0.043200
     34 H4         -25.3910    16.1410    -8.7610 hc         1 UYO       0.048200
     35 H5         -24.3860    17.3560    -7.9650 hc         1 UYO       0.048200
     36 H6         -25.1280    19.0590    -9.6900 hc         1 UYO       0.064200
     37 H7         -26.0310    17.8050   -10.5140 hc         1 UYO       0.064200
     38 H8         -23.8400    19.5680   -11.7860 hc         1 UYO       0.061033
     39 H9         -22.9460    18.2930   -12.6340 hc         1 UYO       0.061033
     40 H10        -24.7210    18.3050   -12.6640 hc         1 UYO       0.061033
     41 H11        -30.1710    16.9920    -4.1750 hc         1 UYO       0.052700
     42 H12        -27.5730    18.7920    -4.1790 hc         1 UYO       0.042700
     43 H13        -27.7530    19.4570    -5.7920 hc         1 UYO       0.042700
     44 H14        -33.4270    16.2760    -6.1920 hc         1 UYO       0.045700
     45 H15        -32.4560    15.5370    -4.9330 hc         1 UYO       0.045700
     46 H16        -31.7370    15.9940    -7.8700 hc         1 UYO       0.040700
     47 H17        -31.8060    14.4780    -7.0020 hc         1 UYO       0.040700
     48 H18        -29.7660    15.0040    -5.7210 hc         1 UYO       0.041200
     49 H19        -29.4210    15.2250    -7.4300 hc         1 UYO       0.041200
     50 H20        -32.1580    19.5750    -4.7000 ha         1 UYO       0.176000
     51 H22        -34.6360    17.8260    -5.3040 ha         1 UYO       0.166000
     52 H25        -36.9940    22.7820    -3.4880 hc         1 UYO       0.064200
     53 H26        -34.7600    21.7810    -3.0630 h1         1 UYO       0.056700
     54 H28        -32.8470    22.6950    -5.8390 ha         1 UYO       0.169000
     55 H29        -32.8070    21.0140    -6.6180 ha         1 UYO       0.169000
     56 H31        -25.8510    16.2300    -4.6130 hc         1 UYO       0.035367
     57 H32        -24.7710    16.2720    -6.0000 hc         1 UYO       0.035367
     58 H33        -25.2960    17.7930    -5.2440 hc         1 UYO       0.035367
     59 H37        -29.8540    19.3960    -3.8110 hc         1 UYO       0.044200
     60 H38        -30.0540    19.7820    -5.5190 hc         1 UYO       0.044200
     61 H41        -36.6740    20.1720    -6.2760 hc         1 UYO       0.052200
     62 H42        -36.7180    18.8060    -5.1790 hc         1 UYO       0.052200
     63 H43        -38.1380    20.7740    -4.4600 h1         1 UYO       0.037700
     64 H44        -23.8160    15.4530   -10.3140 hc         1 UYO       0.061033
     65 H45        -24.8420    15.8830   -11.6970 hc         1 UYO       0.061033
     66 H46        -23.0790    15.8860   -11.8630 hc         1 UYO       0.061033
     67 H47        -28.0950    16.5720    -4.8170 hc         1 UYO       0.044700
     68 H48        -37.2540    19.2530    -2.9460 ho         1 UYO       0.440000
     69 H49        -33.5570    23.5250    -3.8970 ho         1 UYO       0.443000
     70 C18        -32.6250    18.6670    -5.0750 ce         1 UYO      -0.189000
     71 C10        -29.8300    17.9580    -7.6010 c3         1 UYO      -0.076100
     72 H24        -36.7580    22.6290    -5.2240 hc         1 UYO       0.064200
     73 H34        -29.2740    18.9020    -7.6080 hc         1 UYO       0.034033
     74 H35        -29.5490    17.4070    -8.5060 hc         1 UYO       0.034033
     75 H36        -30.8870    18.2200    -7.7200 hc         1 UYO       0.034033
@<TRIPOS>BOND
     1     1     2 1   
     2     1    18 1   
     3     1    26 1   
     4     1    31 1   
     5     2     3 1   
     6     2    32 1   
     7     2    33 1   
     8     3     4 1   
     9     3    34 1   
    10     3    35 1   
    11     4     5 1   
    12     4    36 1   
    13     4    37 1   
    14     5     6 1   
    15     5    17 1   
    16     5    25 1   
    17     6    38 1   
    18     6    39 1   
    19     6    40 1   
    20     7    20 1   
    21     7    21 1   
    22     7    27 1   
    23     7    41 1   
    24     8    20 1   
    25     8    26 1   
    26     8    42 1   
    27     8    43 1   
    28     9    10 1   
    29     9    21 1   
    30     9    44 1   
    31     9    45 1   
    32    10    11 1   
    33    10    46 1   
    34    10    47 1   
    35    11    27 1   
    36    11    48 1   
    37    11    49 1   
    38    12    22 2   
    39    12    51 1   
    40    12    70 1   
    41    13    14 1   
    42    13    24 1   
    43    13    52 1   
    44    13    72 1   
    45    14    15 1   
    46    14    30 1   
    47    14    53 1   
    48    15    16 2   
    49    15    22 1   
    50    16    54 1   
    51    16    55 1   
    52    17    19 1   
    53    17    28 1   
    54    18    56 1   
    55    18    57 1   
    56    18    58 1   
    57    20    59 1   
    58    20    60 1   
    59    21    70 2   
    60    22    23 1   
    61    23    24 1   
    62    23    61 1   
    63    23    62 1   
    64    24    29 1   
    65    24    63 1   
    66    25    64 1   
    67    25    65 1   
    68    25    66 1   
    69    26    27 1   
    70    26    67 1   
    71    27    71 1   
    72    29    68 1   
    73    30    69 1   
    74    50    70 1   
    75    71    73 1   
    76    71    74 1   
    77    71    75 1   
@<TRIPOS>SUBSTRUCTURE
     1 UYO         1 TEMP              0 ****  ****    0 ROOT
