@<TRIPOS>MOLECULE
UYQ
   34    34     1     0     0
SMALL
No Charge or Current Charge


@<TRIPOS>ATOM
      1 N1          45.0860   -33.3880   -13.2170 nv         1 UYQ      -1.012250
      2 C7          45.4520   -38.7080    -3.3770 cz         1 UYQ       0.959100
      3 C8          48.8150   -37.7690    -8.3700 ca         1 UYQ      -0.067000
      4 N2          47.1670   -34.4220   -13.2450 nu         1 UYQ      -0.231900
      5 C9          48.9070   -37.1580    -9.6320 ca         1 UYQ      -0.067000
      6 C1          47.9720   -35.7380   -11.4790 ce         1 UYQ       0.481800
      7 C5          47.6600   -37.6120    -7.5780 ca         1 UYQ      -0.135400
      8 C6          47.5920   -38.2750    -6.2370 ce         1 UYQ       0.481800
      9 N3          47.0190   -35.0070   -11.9840 n2         1 UYQ      -0.547100
     10 C4          46.5950   -36.8290    -8.0760 ca         1 UYQ      -0.067000
     11 C3          46.6870   -36.2170    -9.3390 ca         1 UYQ      -0.067000
     12 C2          47.8450   -36.3760   -10.1310 ca         1 UYQ      -0.135400
     13 N4          46.5450   -38.1640    -5.4590 n2         1 UYQ      -0.547100
     14 N           46.3760   -33.1390   -15.0130 nv         1 UYQ      -0.591050
     15 C           46.2220   -33.6580   -13.8250 cz         1 UYQ       0.959100
     16 N5          46.4990   -38.7880    -4.2150 nu         1 UYQ      -0.653100
     17 N6          44.3960   -38.0150    -3.7090 nv         1 UYQ      -0.591050
     18 N7          45.4870   -39.3230    -2.2260 nv         1 UYQ      -0.591050
     19 H4          44.9050   -33.8110   -12.3170 hn         1 UYQ       0.388000
     20 H5          44.2940   -32.9950   -13.7040 hn         1 UYQ       0.388000
     21 H14         49.6490   -38.3680    -8.0070 ha         1 UYQ       0.135000
     22 H6          48.0110   -34.5520   -13.7970 hn         1 UYQ       0.369500
     23 H15         49.8100   -37.2950   -10.2240 ha         1 UYQ       0.135000
     24 H7          48.9040   -35.9150   -12.0200 h4         1 UYQ       0.018800
     25 H10         48.4640   -38.8610    -5.9360 h4         1 UYQ       0.018800
     26 H9          45.6900   -36.6890    -7.4880 ha         1 UYQ       0.135000
     27 H8          45.8500   -35.6200    -9.6960 ha         1 UYQ       0.135000
     28 H1          45.6950   -32.5050   -15.3950 hn         1 UYQ       0.388000
     29 H11         47.2790   -39.3500    -3.8720 hn         1 UYQ       0.369500
     30 H2          43.5890   -37.9260    -3.1160 hn         1 UYQ       0.388000
     31 H13         44.7180   -39.2810    -1.5780 hn         1 UYQ       0.388000
     32 H12         46.2840   -39.8650    -1.9380 hn         1 UYQ       0.388000
     33 H           47.2110   -33.2790   -15.5600 hn         1 UYQ       0.388000
     34 H3          44.3800   -37.5450    -4.5980 hn         1 UYQ       0.388000
@<TRIPOS>BOND
     1     1    15 2   
     2     1    19 1   
     3     1    20 1   
     4     2    16 2   
     5     2    17 1   
     6     2    18 1   
     7     3     5 ar  
     8     3     7 ar  
     9     3    21 1   
    10     4     9 1   
    11     4    15 1   
    12     4    22 1   
    13     5    12 ar  
    14     5    23 1   
    15     6     9 2   
    16     6    12 1   
    17     6    24 1   
    18     7     8 1   
    19     7    10 ar  
    20     8    13 2   
    21     8    25 1   
    22    10    11 ar  
    23    10    26 1   
    24    11    12 ar  
    25    11    27 1   
    26    13    16 1   
    27    14    15 1   
    28    14    28 1   
    29    14    33 1   
    30    16    29 1   
    31    17    30 1   
    32    17    34 1   
    33    18    31 1   
    34    18    32 1   
@<TRIPOS>SUBSTRUCTURE
     1 UYQ         1 TEMP              0 ****  ****    0 ROOT
