@<TRIPOS>MOLECULE
UYQ
   34    34     1     0     0
SMALL
abcg2


@<TRIPOS>ATOM
      1 N1          45.0990   -33.5590   -12.9490 nv         1 UYQ      -1.012250
      2 C7          45.4820   -38.6210    -3.5620 cz         1 UYQ       0.959100
      3 C8          48.7770   -37.7390    -8.3740 ca         1 UYQ      -0.067000
      4 N2          47.1810   -34.5110   -13.1320 nu         1 UYQ      -0.231900
      5 C9          48.8670   -37.1350    -9.6180 ca         1 UYQ      -0.067000
      6 C1          47.9440   -35.7580   -11.4270 ce         1 UYQ       0.481800
      7 C5          47.6280   -37.5930    -7.6010 ca         1 UYQ      -0.135400
      8 C6          47.5760   -38.2380    -6.2950 ce         1 UYQ       0.481800
      9 N3          47.0030   -35.0570   -11.9160 n2         1 UYQ      -0.547100
     10 C4          46.5640   -36.8310    -8.1000 ca         1 UYQ      -0.067000
     11 C3          46.6530   -36.2320    -9.3360 ca         1 UYQ      -0.067000
     12 C2          47.8090   -36.3770   -10.1130 ca         1 UYQ      -0.135400
     13 N4          46.5530   -38.1220    -5.5500 n2         1 UYQ      -0.547100
     14 N           46.3680   -33.2130   -14.8400 nv         1 UYQ      -0.591050
     15 C           46.1990   -33.7520   -13.6460 cz         1 UYQ       0.959100
     16 N5          46.5630   -38.7340    -4.3530 nu         1 UYQ      -0.653100
     17 N6          44.4420   -37.9280    -3.9790 nv         1 UYQ      -0.591050
     18 N7          45.4940   -39.2080    -2.3790 nv         1 UYQ      -0.591050
     19 H4          44.9990   -33.9760   -12.0370 hn         1 UYQ       0.388000
     20 H5          44.3390   -33.0070   -13.3110 hn         1 UYQ       0.388000
     21 H14         49.6080   -38.3260    -8.0020 ha         1 UYQ       0.135000
     22 H6          48.0410   -34.6570   -13.6530 hn         1 UYQ       0.369500
     23 H15         49.7670   -37.2550   -10.2080 ha         1 UYQ       0.135000
     24 H7          48.8810   -35.9250   -11.9610 h4         1 UYQ       0.018800
     25 H10         48.4510   -38.8180    -5.9920 h4         1 UYQ       0.018800
     26 H9          45.6640   -36.7110    -7.5110 ha         1 UYQ       0.135000
     27 H8          45.8220   -35.6470    -9.7060 ha         1 UYQ       0.135000
     28 H1          45.6560   -32.6340   -15.2540 hn         1 UYQ       0.388000
     29 H11         47.3640   -39.2760    -4.0430 hn         1 UYQ       0.369500
     30 H2          43.6260   -37.8150    -3.4010 hn         1 UYQ       0.388000
     31 H13         44.6890   -39.1750    -1.7760 hn         1 UYQ       0.388000
     32 H12         46.2790   -39.7580    -2.0690 hn         1 UYQ       0.388000
     33 H           47.2010   -33.3780   -15.3820 hn         1 UYQ       0.388000
     34 H3          44.4620   -37.4790    -4.8810 hn         1 UYQ       0.388000
@<TRIPOS>BOND
     1     1    15 2   
     2     1    19 1   
     3     1    20 1   
     4     2    16 2   
     5     2    17 1   
     6     2    18 1   
     7     3     5 ar  
     8     3     7 ar  
     9     3    21 1   
    10     4     9 1   
    11     4    15 1   
    12     4    22 1   
    13     5    12 ar  
    14     5    23 1   
    15     6     9 2   
    16     6    12 1   
    17     6    24 1   
    18     7     8 1   
    19     7    10 ar  
    20     8    13 2   
    21     8    25 1   
    22    10    11 ar  
    23    10    26 1   
    24    11    12 ar  
    25    11    27 1   
    26    13    16 1   
    27    14    15 1   
    28    14    28 1   
    29    14    33 1   
    30    16    29 1   
    31    17    30 1   
    32    17    34 1   
    33    18    31 1   
    34    18    32 1   
@<TRIPOS>SUBSTRUCTURE
     1 UYQ         1 TEMP              0 ****  ****    0 ROOT
