@<TRIPOS>MOLECULE
UYR
   18    18     1     0     0
SMALL
abcg2


@<TRIPOS>ATOM
      1 N1          -5.5340    14.5740   -33.6910 nt         1 UYR      -0.601000
      2 C7          -4.3540    15.0630   -34.1130 c          1 UYR       0.623300
      3 C1           0.3950    12.0440   -36.1910 cc         1 UYR      -0.247000
      4 C5          -3.3480    14.0520   -34.5960 ce         1 UYR      -0.123900
      5 C6          -3.7210    12.6840   -34.5980 cg         1 UYR       0.294700
      6 C4          -2.1340    14.4960   -35.0040 cf         1 UYR       0.008800
      7 C3          -0.9940    13.7790   -35.4990 cd         1 UYR      -0.123800
      8 C2           0.1540    14.4720   -35.8460 cc         1 UYR      -0.218000
      9 O           -4.0930    16.2640   -34.1100 o          1 UYR      -0.612100
     10 N           -4.0810    11.5870   -34.5750 n1         1 UYR      -0.471000
     11 C           -0.8330    12.3650   -35.7070 cd         1 UYR      -0.094000
     12 S            1.3860    13.4430   -36.4060 ss         1 UYR       0.246000
     13 H1          -6.2360    15.2160   -33.3590 hn         1 UYR       0.323000
     14 H2          -5.7510    13.5910   -33.6910 hn         1 UYR       0.323000
     15 H3           0.7800    11.0660   -36.4340 h4         1 UYR       0.157000
     16 H4          -2.0130    15.5720   -34.9380 ha         1 UYR       0.209000
     17 H5           0.3060    15.5390   -35.7920 h4         1 UYR       0.158000
     18 H6          -1.5920    11.6270   -35.5060 ha         1 UYR       0.149000
@<TRIPOS>BOND
     1     1     2 1   
     2     1    13 1   
     3     1    14 1   
     4     2     4 1   
     5     2     9 2   
     6     3    11 2   
     7     3    12 1   
     8     3    15 1   
     9     4     5 1   
    10     4     6 2   
    11     5    10 3   
    12     6     7 1   
    13     6    16 1   
    14     7     8 2   
    15     7    11 1   
    16     8    12 1   
    17     8    17 1   
    18    11    18 1   
@<TRIPOS>SUBSTRUCTURE
     1 UYR         1 TEMP              0 ****  ****    0 ROOT
