@<TRIPOS>MOLECULE
UYR
   18    18     1     0     0
SMALL
No Charge or Current Charge


@<TRIPOS>ATOM
      1 N1          -5.5590    14.5550   -33.6380 nt         1 UYR      -0.601000
      2 C7          -4.4700    15.0460   -34.2760 c          1 UYR       0.623300
      3 C1           0.3230    12.0270   -36.3660 cc         1 UYR      -0.247000
      4 C5          -3.3370    14.1070   -34.5780 ce         1 UYR      -0.123900
      5 C6          -3.4750    12.7450   -34.1600 cg         1 UYR       0.294700
      6 C4          -2.2070    14.5500   -35.2130 cf         1 UYR       0.008800
      7 C3          -0.9910    13.8060   -35.5620 cd         1 UYR      -0.123800
      8 C2           0.2680    14.3440   -35.4270 cc         1 UYR      -0.218000
      9 O           -4.4540    16.2280   -34.5790 o          1 UYR      -0.612100
     10 N           -3.6340    11.6450   -33.8040 n1         1 UYR      -0.471000
     11 C           -0.9420    12.4890   -36.1110 cd         1 UYR      -0.094000
     12 S            1.5290    13.2270   -35.9340 ss         1 UYR       0.246000
     13 H1          -6.3260    15.1760   -33.4300 hn         1 UYR       0.323000
     14 H2          -5.6010    13.5810   -33.3740 hn         1 UYR       0.323000
     15 H3           0.6370    11.0770   -36.7780 h4         1 UYR       0.157000
     16 H4          -2.1490    15.6160   -35.4480 ha         1 UYR       0.209000
     17 H5           0.5540    15.3190   -35.0550 h4         1 UYR       0.158000
     18 H6          -1.8290    11.8980   -36.3220 ha         1 UYR       0.149000
@<TRIPOS>BOND
     1     1     2 1   
     2     1    13 1   
     3     1    14 1   
     4     2     4 1   
     5     2     9 2   
     6     3    11 2   
     7     3    12 1   
     8     3    15 1   
     9     4     5 1   
    10     4     6 2   
    11     5    10 3   
    12     6     7 1   
    13     6    16 1   
    14     7     8 2   
    15     7    11 1   
    16     8    12 1   
    17     8    17 1   
    18    11    18 1   
@<TRIPOS>SUBSTRUCTURE
     1 UYR         1 TEMP              0 ****  ****    0 ROOT
