@<TRIPOS>MOLECULE
UYS
   41    42     1     0     0
SMALL
abcg2


@<TRIPOS>ATOM
      1 CAA          3.2450    -6.9000    14.8130 ca         1 UYS       0.269000
      2 CAB          2.4900    -7.0780    16.0190 ca         1 UYS       0.679900
      3 CAD          0.5760    -7.3100    14.7540 ca         1 UYS       0.679900
      4 CAE          1.3070    -7.0020    13.5640 ca         1 UYS       0.135500
      5 CAG          0.6690    -6.9030    12.2240 c          1 UYS       0.665000
      6 CAI          1.0930    -6.4680     9.9750 c2         1 UYS       0.936100
      7 CAQ          4.6640    -6.9000    14.7630 cg         1 UYS      -0.152000
      8 CAR          5.8700    -6.9350    14.6870 ch         1 UYS      -0.144000
      9 CAS          7.2900    -6.9810    14.6360 ca         1 UYS       0.047000
     10 CAT          8.0230    -7.3480    15.7700 ca         1 UYS      -0.096500
     11 CAU          9.4070    -7.3920    15.7240 ca         1 UYS      -0.112000
     12 CAV         10.0790    -7.0720    14.5510 ca         1 UYS      -0.111000
     13 CAW          9.3580    -6.7060    13.4200 ca         1 UYS      -0.112000
     14 CAX          7.9730    -6.6600    13.4570 ca         1 UYS      -0.096500
     15 NAC          1.1910    -7.3180    15.9350 nb         1 UYS      -0.858000
     16 NAF          2.6120    -6.8410    13.6540 nb         1 UYS      -0.517000
     17 NAH          1.5120    -6.5890    11.2290 ne         1 UYS      -0.816100
     18 NAJ         -0.1590    -6.6230     9.5420 nv         1 UYS      -1.078200
     19 NAK          2.0250    -6.1410     9.0700 nv         1 UYS      -1.078200
     20 NAM         -0.7270    -7.5980    14.7600 nv         1 UYS      -1.065900
     21 NAN          3.0330    -7.0430    17.2530 nh         1 UYS      -0.776300
     22 OAL         -0.5560    -7.1070    12.1260 o          1 UYS      -0.723100
     23 C01          4.2240    -6.2810    17.5780 c3         1 UYS       0.217100
     24 C02          2.2560    -7.4950    18.3890 c3         1 UYS       0.217100
     25 H04          7.5030    -7.6010    16.6850 ha         1 UYS       0.117500
     26 H05          9.9620    -7.6790    16.6070 ha         1 UYS       0.111500
     27 H03         11.1600    -7.1060    14.5170 ha         1 UYS       0.111000
     28 H02          9.8760    -6.4540    12.5040 ha         1 UYS       0.111500
     29 H01          7.4150    -6.3730    12.5760 ha         1 UYS       0.117500
     30 HAZ         -0.8700    -6.8600    10.2150 hn         1 UYS       0.508000
     31 HAJ         -0.4010    -6.5210     8.5710 hn         1 UYS       0.508000
     32 HAK          2.9860    -6.1180     9.3620 hn         1 UYS       0.508000
     33 HAM         -1.1890    -7.7780    15.6350 hn         1 UYS       0.515500
     34 HA0         -1.2490    -7.5550    13.9000 hn         1 UYS       0.515500
     35 H10          4.0670    -5.7880    18.5370 h1         1 UYS       0.042867
     36 H11          5.1140    -6.9060    17.6580 h1         1 UYS       0.042867
     37 H09          4.4110    -5.5030    16.8430 h1         1 UYS       0.042867
     38 H12          2.9430    -7.8000    19.1770 h1         1 UYS       0.042867
     39 H13          1.6060    -6.7110    18.7870 h1         1 UYS       0.042867
     40 H08          1.6400    -8.3500    18.1240 h1         1 UYS       0.042867
     41 HA1          1.8360    -6.1370     8.0830 hn         1 UYS       0.508000
@<TRIPOS>BOND
     1     1     2 ar  
     2     1     7 1   
     3     1    16 ar  
     4     2    15 ar  
     5     2    21 1   
     6     3     4 ar  
     7     3    15 ar  
     8     3    20 1   
     9     4     5 1   
    10     4    16 ar  
    11     5    17 1   
    12     5    22 2   
    13     6    17 2   
    14     6    18 1   
    15     6    19 1   
    16     7     8 3   
    17     8     9 1   
    18     9    10 ar  
    19     9    14 ar  
    20    10    11 ar  
    21    10    25 1   
    22    11    12 ar  
    23    11    26 1   
    24    12    13 ar  
    25    12    27 1   
    26    13    14 ar  
    27    13    28 1   
    28    14    29 1   
    29    18    30 1   
    30    18    31 1   
    31    19    32 1   
    32    19    41 1   
    33    20    33 1   
    34    20    34 1   
    35    21    23 1   
    36    21    24 1   
    37    23    35 1   
    38    23    36 1   
    39    23    37 1   
    40    24    38 1   
    41    24    39 1   
    42    24    40 1   
@<TRIPOS>SUBSTRUCTURE
     1 UYS         1 TEMP              0 ****  ****    0 ROOT
