@<TRIPOS>MOLECULE
UYS
   41    42     1     0     0
SMALL
No Charge or Current Charge


@<TRIPOS>ATOM
      1 CAA          3.0390    -7.1260    14.5610 ca         1 UYS       0.269000
      2 CAB          2.2890    -7.1530    15.8020 ca         1 UYS       0.679900
      3 CAD          0.3660    -7.3720    14.6260 ca         1 UYS       0.679900
      4 CAE          1.0620    -7.3600    13.3770 ca         1 UYS       0.135500
      5 CAG          0.2820    -7.5150    12.0700 c          1 UYS       0.665000
      6 CAI          1.1260    -6.4000    10.3450 c2         1 UYS       0.936100
      7 CAQ          4.4750    -7.0330    14.4950 cg         1 UYS      -0.152000
      8 CAR          5.6920    -6.9480    14.4530 ch         1 UYS      -0.144000
      9 CAS          7.1130    -6.8440    14.4270 ca         1 UYS       0.047000
     10 CAT          7.8630    -7.1310    15.5830 ca         1 UYS      -0.096500
     11 CAU          9.2650    -7.0270    15.5590 ca         1 UYS      -0.112000
     12 CAV          9.9210    -6.6350    14.3790 ca         1 UYS      -0.111000
     13 CAW          9.1750    -6.3470    13.2230 ca         1 UYS      -0.112000
     14 CAX          7.7720    -6.4510    13.2470 ca         1 UYS      -0.096500
     15 NAC          0.9410    -7.2850    15.8220 nb         1 UYS      -0.858000
     16 NAF          2.4310    -7.2300    13.3480 nb         1 UYS      -0.517000
     17 NAH          1.0270    -7.5030    10.9010 ne         1 UYS      -0.816100
     18 NAJ          2.3100    -5.9440    10.5510 nv         1 UYS      -1.078200
     19 NAK          1.3380    -6.6400     9.1170 nv         1 UYS      -1.078200
     20 NAM         -0.9530    -7.4680    14.8380 nv         1 UYS      -1.065900
     21 NAN          2.8410    -7.0530    17.1090 nh         1 UYS      -0.776300
     22 OAL         -0.9320    -7.6710    12.0220 o          1 UYS      -0.723100
     23 C01          3.9020    -6.0710    17.4220 c3         1 UYS       0.217100
     24 C02          2.2460    -7.7810    18.2540 c3         1 UYS       0.217100
     25 H04          7.3610    -7.4350    16.4990 ha         1 UYS       0.117500
     26 H05          9.8420    -7.2500    16.4540 ha         1 UYS       0.111500
     27 H03         11.0060    -6.5550    14.3600 ha         1 UYS       0.111000
     28 H02          9.6820    -6.0440    12.3100 ha         1 UYS       0.111500
     29 H01          7.2000    -6.2270    12.3490 ha         1 UYS       0.117500
     30 HAZ          2.6750    -6.5310    11.2930 hn         1 UYS       0.508000
     31 HAJ          2.2610    -4.9800    10.8550 hn         1 UYS       0.508000
     32 HAK          2.2840    -6.3460     8.9490 hn         1 UYS       0.508000
     33 HAM         -1.2040    -7.7850    15.7650 hn         1 UYS       0.515500
     34 HA0         -1.5140    -7.7940    14.0530 hn         1 UYS       0.515500
     35 H10          3.7450    -5.6350    18.4180 h1         1 UYS       0.042867
     36 H11          4.8890    -6.5510    17.4040 h1         1 UYS       0.042867
     37 H09          3.8980    -5.2460    16.6970 h1         1 UYS       0.042867
     38 H12          2.9850    -7.9100    19.0570 h1         1 UYS       0.042867
     39 H13          1.3860    -7.2310    18.6580 h1         1 UYS       0.042867
     40 H08          1.9140    -8.7820    17.9470 h1         1 UYS       0.042867
     41 HA1          1.2640    -7.6410     9.0760 hn         1 UYS       0.508000
@<TRIPOS>BOND
     1     1     2 ar  
     2     1     7 1   
     3     1    16 ar  
     4     2    15 ar  
     5     2    21 1   
     6     3     4 ar  
     7     3    15 ar  
     8     3    20 1   
     9     4     5 1   
    10     4    16 ar  
    11     5    17 1   
    12     5    22 2   
    13     6    17 2   
    14     6    18 1   
    15     6    19 1   
    16     7     8 3   
    17     8     9 1   
    18     9    10 ar  
    19     9    14 ar  
    20    10    11 ar  
    21    10    25 1   
    22    11    12 ar  
    23    11    26 1   
    24    12    13 ar  
    25    12    27 1   
    26    13    14 ar  
    27    13    28 1   
    28    14    29 1   
    29    18    30 1   
    30    18    31 1   
    31    19    32 1   
    32    19    41 1   
    33    20    33 1   
    34    20    34 1   
    35    21    23 1   
    36    21    24 1   
    37    23    35 1   
    38    23    36 1   
    39    23    37 1   
    40    24    38 1   
    41    24    39 1   
    42    24    40 1   
@<TRIPOS>SUBSTRUCTURE
     1 UYS         1 TEMP              0 ****  ****    0 ROOT
