@<TRIPOS>MOLECULE
UYT
   26    26     1     0     0
SMALL
bcc


@<TRIPOS>ATOM
      1 CAA         48.2800   -32.2270    -3.0510 c3         1 UYT      -0.195400
      2 CAB         49.4750   -33.1290    -3.1320 ce         1 UYT       0.513900
      3 CAE         50.5020   -33.5130     0.1650 cz         1 UYT       0.545300
      4 CAH         49.9410   -33.6400    -4.4380 ca         1 UYT      -0.174900
      5 CAI         50.6140   -34.8610    -4.5230 ca         1 UYT      -0.087000
      6 CAJ         51.0720   -35.3300    -5.7430 ca         1 UYT      -0.126500
      7 CAK         50.8730   -34.5840    -6.8990 ca         1 UYT      -0.081000
      8 CAL         50.2090   -33.3690    -6.8240 ca         1 UYT      -0.126500
      9 CAM         49.7390   -32.9020    -5.6050 ca         1 UYT      -0.087000
     10 NAC         50.1480   -33.5110    -2.1160 n2         1 UYT      -0.581100
     11 NAD         49.7760   -33.0990    -0.8860 nu         1 UYT      -0.189000
     12 NAF         51.5460   -34.2920    -0.0350 nv         1 UYT      -0.498200
     13 NAG         50.1540   -33.1200     1.3780 nv         1 UYT      -0.498200
     14 HAB         47.5430   -32.6210    -2.3470 hc         1 UYT       0.073033
     15 HAC         48.5590   -31.2270    -2.7100 hc         1 UYT       0.073033
     16 HAA         47.7780   -32.1250    -4.0070 hc         1 UYT       0.073033
     17 HAI         50.7630   -35.4540    -3.6300 ha         1 UYT       0.134500
     18 HAJ         51.5800   -36.2850    -5.7930 ha         1 UYT       0.150000
     19 HAK         51.2310   -34.9520    -7.8520 ha         1 UYT       0.152000
     20 HAL         50.0530   -32.7790    -7.7180 ha         1 UYT       0.150000
     21 HAM         49.2320   -31.9470    -5.5720 ha         1 UYT       0.134500
     22 HAD         48.9980   -32.4680    -0.7330 hn         1 UYT       0.311700
     23 HAF         52.0940   -34.6420     0.7330 hn         1 UYT       0.333700
     24 HAG         50.6600   -33.4330     2.1900 hn         1 UYT       0.333700
     25 HAO         49.3310   -32.5610     1.5370 hn         1 UYT       0.333700
     26 HAN         51.7880   -34.5730    -0.9720 hn         1 UYT       0.333700
@<TRIPOS>BOND
     1     1     2 1   
     2     1    14 1   
     3     1    15 1   
     4     1    16 1   
     5     2     4 1   
     6     2    10 2   
     7     3    11 2   
     8     3    12 1   
     9     3    13 1   
    10     4     5 ar  
    11     4     9 ar  
    12     5     6 ar  
    13     5    17 1   
    14     6     7 ar  
    15     6    18 1   
    16     7     8 ar  
    17     7    19 1   
    18     8     9 ar  
    19     8    20 1   
    20     9    21 1   
    21    10    11 1   
    22    11    22 1   
    23    12    23 1   
    24    12    26 1   
    25    13    24 1   
    26    13    25 1   
@<TRIPOS>SUBSTRUCTURE
     1 UYT         1 TEMP              0 ****  ****    0 ROOT
