@<TRIPOS>MOLECULE
UYT
   26    26     1     0     0
SMALL
No Charge or Current Charge


@<TRIPOS>ATOM
      1 CAA         48.2030   -32.3520    -3.0730 c3         1 UYT      -0.195400
      2 CAB         49.4790   -33.1750    -3.1560 ce         1 UYT       0.513900
      3 CAE         50.5250   -33.4840     0.2910 cz         1 UYT       0.950600
      4 CAH         49.9280   -33.6630    -4.5050 ca         1 UYT      -0.174900
      5 CAI         50.5810   -34.9100    -4.6420 ca         1 UYT      -0.069000
      6 CAJ         51.0380   -35.3470    -5.8980 ca         1 UYT      -0.108500
      7 CAK         50.8670   -34.5380    -7.0320 ca         1 UYT      -0.063000
      8 CAL         50.2460   -33.2850    -6.9060 ca         1 UYT      -0.108500
      9 CAM         49.7870   -32.8460    -5.6510 ca         1 UYT      -0.069000
     10 NAC         50.1320   -33.5750    -2.0910 n2         1 UYT      -0.581100
     11 NAD         49.8650   -33.0890    -0.8100 nu         1 UYT      -0.644600
     12 NAF         51.4840   -34.3660     0.2030 nv         1 UYT      -0.598800
     13 NAG         50.2120   -32.9840     1.4570 nv         1 UYT      -0.598800
     14 HAB         47.5140   -32.7700    -2.3310 hc         1 UYT       0.073033
     15 HAC         48.4230   -31.3170    -2.7910 hc         1 UYT       0.073033
     16 HAA         47.6620   -32.3330    -4.0250 hc         1 UYT       0.073033
     17 HAI         50.7260   -35.5530    -3.7760 ha         1 UYT       0.116500
     18 HAJ         51.5280   -36.3140    -5.9910 ha         1 UYT       0.132000
     19 HAK         51.2220   -34.8760    -8.0030 ha         1 UYT       0.134000
     20 HAL         50.1260   -32.6490    -7.7800 ha         1 UYT       0.132000
     21 HAM         49.3310   -31.8610    -5.5760 ha         1 UYT       0.116500
     22 HAD         49.1410   -32.3900    -0.6480 hn         1 UYT       0.362000
     23 HAF         52.0360   -34.6580     0.9910 hn         1 UYT       0.384000
     24 HAG         50.6790   -33.2730     2.3010 hn         1 UYT       0.384000
     25 HAO         49.4750   -32.3070     1.5630 hn         1 UYT       0.384000
     26 HAN         51.7280   -34.7310    -0.7020 hn         1 UYT       0.384000
@<TRIPOS>BOND
     1     1     2 1   
     2     1    14 1   
     3     1    15 1   
     4     1    16 1   
     5     2     4 1   
     6     2    10 2   
     7     3    11 2   
     8     3    12 1   
     9     3    13 1   
    10     4     5 ar  
    11     4     9 ar  
    12     5     6 ar  
    13     5    17 1   
    14     6     7 ar  
    15     6    18 1   
    16     7     8 ar  
    17     7    19 1   
    18     8     9 ar  
    19     8    20 1   
    20     9    21 1   
    21    10    11 1   
    22    11    22 1   
    23    12    23 1   
    24    12    26 1   
    25    13    24 1   
    26    13    25 1   
@<TRIPOS>SUBSTRUCTURE
     1 UYT         1 TEMP              0 ****  ****    0 ROOT
