@<TRIPOS>MOLECULE
UYU
   75    77     1     0     0
SMALL
No Charge or Current Charge


@<TRIPOS>ATOM
      1 C1         -26.9140    16.6640    -6.4790 c3         1 UYU      -0.047700
      2 C2         -26.5610    17.4760    -7.7660 c3         1 UYU      -0.074400
      3 C3         -25.3430    16.9520    -8.5690 c3         1 UYU      -0.075400
      4 C4         -25.1570    17.6940    -9.9220 c3         1 UYU      -0.064400
      5 C5         -23.9260    17.2730   -10.7850 c3         1 UYU       0.170200
      6 C6         -23.8870    18.1190   -12.0800 c3         1 UYU      -0.102600
      7 C8         -28.2100    17.1650    -5.6880 c5         1 UYU      -0.054700
      8 C9         -29.6410    17.0140    -6.3220 c5         1 UYU      -0.044000
      9 C12        -29.7380    19.0060    -4.9420 c5         1 UYU      -0.069400
     10 C19        -34.1760    18.8420    -5.2040 ce         1 UYU      -0.161000
     11 C24        -34.9440    22.3480    -4.2010 c6         1 UYU       0.208500
     12 C25        -34.3030    21.3580    -5.2090 cf         1 UYU      -0.113200
     13 C26        -33.2970    21.7070    -6.0520 c2         1 UYU      -0.303000
     14 N          -22.6880    17.5370   -10.0420 n8         1 UYU      -0.993200
     15 C          -25.7010    16.6300    -5.5100 c3         1 UYU      -0.089100
     16 O          -36.8870    20.4290    -2.8850 oh         1 UYU      -0.665000
     17 C10        -29.8850    17.7880    -7.6630 c3         1 UYU      -0.076100
     18 C11        -30.4440    17.6230    -5.0990 c5         1 UYU      -0.037500
     19 C13        -28.2230    18.6620    -5.1960 c5         1 UYU      -0.073400
     20 C14        -31.9930    17.5830    -5.3280 c2         1 UYU      -0.077400
     21 C15        -32.5660    16.2040    -5.7040 c6         1 UYU      -0.042200
     22 C16        -31.7260    15.4360    -6.7720 c6         1 UYU      -0.070400
     23 C17        -30.1670    15.5390    -6.5140 c6         1 UYU      -0.063400
     24 C18        -32.7100    18.7180    -5.1070 ce         1 UYU      -0.190000
     25 C20        -34.8870    20.0100    -5.2170 cf         1 UYU      -0.069200
     26 C21        -36.4290    19.9700    -5.2510 c6         1 UYU      -0.070200
     27 C22        -37.0740    20.9260    -4.2170 c6         1 UYU       0.174300
     28 C23        -36.4840    22.3490    -4.3500 c6         1 UYU      -0.062400
     29 C7         -23.9630    15.7680   -11.1490 c3         1 UYU      -0.102600
     30 O1         -34.4610    23.6930    -4.3200 oh         1 UYU      -0.664000
     31 H1         -27.0340    15.6130    -6.8240 hc         1 UYU       0.044700
     32 H2         -26.3820    18.5260    -7.5070 hc         1 UYU       0.041200
     33 H3         -27.4120    17.4610    -8.4490 hc         1 UYU       0.041200
     34 H4         -25.4800    15.8800    -8.7540 hc         1 UYU       0.037200
     35 H5         -24.4340    17.0680    -7.9690 hc         1 UYU       0.037200
     36 H6         -25.0950    18.7710    -9.7200 hc         1 UYU       0.044200
     37 H7         -26.0660    17.5520   -10.5200 hc         1 UYU       0.044200
     38 H8         -23.8370    19.1910   -11.8500 hc         1 UYU       0.037033
     39 H9         -23.0140    17.8640   -12.6940 hc         1 UYU       0.037033
     40 H10        -24.7850    17.9460   -12.6840 hc         1 UYU       0.037033
     41 H11        -28.1930    16.5280    -4.7940 hc         1 UYU       0.042700
     42 H12        -29.8980    19.4390    -3.9480 hc         1 UYU       0.043700
     43 H13        -30.0930    19.7410    -5.6730 hc         1 UYU       0.043700
     44 H14        -34.7440    17.9140    -5.2310 ha         1 UYU       0.166000
     45 H16        -34.7090    21.9770    -3.1920 h1         1 UYU       0.056700
     46 H18        -32.8690    22.7080    -6.0700 ha         1 UYU       0.169500
     47 H19        -32.8920    20.9900    -6.7650 ha         1 UYU       0.169500
     48 H21        -22.9370    17.8360    -9.0940 hn         1 UYU       0.389500
     49 H22        -22.1990    16.6490    -9.8940 hn         1 UYU       0.389500
     50 H24        -25.9510    16.0960    -4.5860 hc         1 UYU       0.032700
     51 H25        -24.8460    16.1080    -5.9540 hc         1 UYU       0.032700
     52 H26        -25.3840    17.6450    -5.2410 hc         1 UYU       0.032700
     53 H28        -29.3330    18.7330    -7.7180 hc         1 UYU       0.034700
     54 H29        -29.5920    17.1870    -8.5310 hc         1 UYU       0.034700
     55 H30        -30.9440    18.0350    -7.8010 hc         1 UYU       0.034700
     56 H31        -30.2610    17.0350    -4.1890 hc         1 UYU       0.051700
     57 H32        -27.6250    18.7800    -4.2850 hc         1 UYU       0.043200
     58 H33        -27.7990    19.3500    -5.9340 hc         1 UYU       0.043200
     59 H35        -33.5960    16.2820    -6.0700 hc         1 UYU       0.045200
     60 H36        -32.6140    15.5950    -4.7910 hc         1 UYU       0.045200
     61 H37        -31.9560    15.8400    -7.7670 hc         1 UYU       0.040700
     62 H38        -32.0320    14.3810    -6.7980 hc         1 UYU       0.040700
     63 H39        -29.9240    14.9520    -5.6170 hc         1 UYU       0.040200
     64 H40        -29.6250    15.0550    -7.3380 hc         1 UYU       0.040200
     65 H41        -32.2060    19.6330    -4.8050 ha         1 UYU       0.177000
     66 H44        -36.7600    20.2560    -6.2580 hc         1 UYU       0.051700
     67 H45        -36.7990    18.9480    -5.0930 hc         1 UYU       0.051700
     68 H46        -38.1520    20.9820    -4.4310 h1         1 UYU       0.036700
     69 H47        -36.9340    23.0080    -3.5960 hc         1 UYU       0.063700
     70 H48        -36.7570    22.7640    -5.3300 hc         1 UYU       0.063700
     71 H49        -23.8720    15.1330   -10.2600 hc         1 UYU       0.037033
     72 H50        -24.9050    15.5150   -11.6510 hc         1 UYU       0.037033
     73 H51        -23.1420    15.5080   -11.8290 hc         1 UYU       0.037033
     74 H52        -33.4960    23.6490    -4.1480 ho         1 UYU       0.443000
     75 H27        -37.2530    19.5170    -2.8710 ho         1 UYU       0.439000
@<TRIPOS>BOND
     1     1     2 1   
     2     1     7 1   
     3     1    15 1   
     4     1    31 1   
     5     2     3 1   
     6     2    32 1   
     7     2    33 1   
     8     3     4 1   
     9     3    34 1   
    10     3    35 1   
    11     4     5 1   
    12     4    36 1   
    13     4    37 1   
    14     5     6 1   
    15     5    14 1   
    16     5    29 1   
    17     6    38 1   
    18     6    39 1   
    19     6    40 1   
    20     7     8 1   
    21     7    19 1   
    22     7    41 1   
    23     8    17 1   
    24     8    18 1   
    25     8    23 1   
    26     9    18 1   
    27     9    19 1   
    28     9    42 1   
    29     9    43 1   
    30    10    24 1   
    31    10    25 2   
    32    10    44 1   
    33    11    12 1   
    34    11    28 1   
    35    11    30 1   
    36    11    45 1   
    37    12    13 2   
    38    12    25 1   
    39    13    46 1   
    40    13    47 1   
    41    14    48 1   
    42    14    49 1   
    43    15    50 1   
    44    15    51 1   
    45    15    52 1   
    46    16    27 1   
    47    16    75 1   
    48    17    53 1   
    49    17    54 1   
    50    17    55 1   
    51    18    20 1   
    52    18    56 1   
    53    19    57 1   
    54    19    58 1   
    55    20    21 1   
    56    20    24 2   
    57    21    22 1   
    58    21    59 1   
    59    21    60 1   
    60    22    23 1   
    61    22    61 1   
    62    22    62 1   
    63    23    63 1   
    64    23    64 1   
    65    24    65 1   
    66    25    26 1   
    67    26    27 1   
    68    26    66 1   
    69    26    67 1   
    70    27    28 1   
    71    27    68 1   
    72    28    69 1   
    73    28    70 1   
    74    29    71 1   
    75    29    72 1   
    76    29    73 1   
    77    30    74 1   
@<TRIPOS>SUBSTRUCTURE
     1 UYU         1 TEMP              0 ****  ****    0 ROOT
