@<TRIPOS>MOLECULE
UYU
   75    77     1     0     0
SMALL
abcg2


@<TRIPOS>ATOM
      1 C1         -26.9300    16.6130    -6.3470 c3         1 UYU      -0.047700
      2 C2         -26.4470    17.6330    -7.3920 c3         1 UYU      -0.074400
      3 C3         -25.7060    17.0010    -8.5700 c3         1 UYU      -0.075400
      4 C4         -25.2060    18.0530    -9.5590 c3         1 UYU      -0.064400
      5 C5         -24.3980    17.5410   -10.7640 c3         1 UYU       0.170200
      6 C6         -23.9570    18.7400   -11.6060 c3         1 UYU      -0.102600
      7 C8         -28.0800    17.0980    -5.4380 c5         1 UYU      -0.054700
      8 C9         -29.5300    16.8830    -5.9340 c5         1 UYU      -0.044000
      9 C12        -29.5210    18.9890    -4.7180 c5         1 UYU      -0.069400
     10 C19        -33.9550    18.8020    -5.4190 ce         1 UYU      -0.161000
     11 C24        -34.8010    22.2610    -4.8030 c6         1 UYU       0.208500
     12 C25        -34.1530    21.2770    -5.7600 cf         1 UYU      -0.113200
     13 C26        -33.2240    21.6330    -6.6450 c2         1 UYU      -0.303000
     14 N          -23.1710    16.8790   -10.2660 n8         1 UYU      -0.993200
     15 C          -25.7530    16.1360    -5.4870 c3         1 UYU      -0.089100
     16 O          -36.6890    20.4300    -3.4090 oh         1 UYU      -0.665000
     17 C10        -29.7710    17.4780    -7.3280 c3         1 UYU      -0.076100
     18 C11        -30.2960    17.6770    -4.8370 c5         1 UYU      -0.037500
     19 C13        -28.0460    18.5830    -4.9860 c5         1 UYU      -0.073400
     20 C14        -31.7770    17.6430    -5.0510 c2         1 UYU      -0.077400
     21 C15        -32.2940    16.2250    -5.0590 c6         1 UYU      -0.042200
     22 C16        -31.5280    15.3210    -6.0460 c6         1 UYU      -0.070400
     23 C17        -30.0050    15.4280    -5.8930 c6         1 UYU      -0.063400
     24 C18        -32.5210    18.7500    -5.2240 ce         1 UYU      -0.190000
     25 C20        -34.6960    19.9040    -5.6440 cf         1 UYU      -0.069200
     26 C21        -36.1990    19.8380    -5.7400 c6         1 UYU      -0.070200
     27 C22        -36.8820    20.8160    -4.7780 c6         1 UYU       0.174300
     28 C23        -36.3230    22.2220    -4.9360 c6         1 UYU      -0.062400
     29 C7         -25.2420    16.5950   -11.6320 c3         1 UYU      -0.102600
     30 O1         -34.3970    23.6130    -4.9970 oh         1 UYU      -0.664000
     31 H1         -27.3090    15.7420    -6.8940 hc         1 UYU       0.044700
     32 H2         -25.7910    18.3610    -6.9050 hc         1 UYU       0.041200
     33 H3         -27.2900    18.2020    -7.7860 hc         1 UYU       0.041200
     34 H4         -26.3790    16.3000    -9.0720 hc         1 UYU       0.037200
     35 H5         -24.8630    16.4120    -8.1990 hc         1 UYU       0.037200
     36 H6         -24.5790    18.7710    -9.0210 hc         1 UYU       0.044200
     37 H7         -26.0650    18.6140    -9.9440 hc         1 UYU       0.044200
     38 H8         -23.3660    19.4340   -11.0060 hc         1 UYU       0.037033
     39 H9         -23.3480    18.4120   -12.4530 hc         1 UYU       0.037033
     40 H10        -24.8240    19.2740   -11.9990 hc         1 UYU       0.037033
     41 H11        -28.0180    16.4900    -4.5290 hc         1 UYU       0.042700
     42 H12        -29.6590    19.4540    -3.7410 hc         1 UYU       0.043700
     43 H13        -29.8560    19.7090    -5.4650 hc         1 UYU       0.043700
     44 H14        -34.4970    17.8650    -5.3480 ha         1 UYU       0.166000
     45 H16        -34.5350    21.9470    -3.7860 h1         1 UYU       0.056700
     46 H18        -32.8780    22.6560    -6.7210 ha         1 UYU       0.169500
     47 H19        -32.7930    20.9100    -7.3250 ha         1 UYU       0.169500
     48 H21        -23.4180    16.0190    -9.7850 hn         1 UYU       0.389500
     49 H22        -22.6060    16.5920   -11.0610 hn         1 UYU       0.389500
     50 H24        -26.0590    15.3240    -4.8230 hc         1 UYU       0.032700
     51 H25        -24.9240    15.7730    -6.0980 hc         1 UYU       0.032700
     52 H26        -25.3780    16.9540    -4.8660 hc         1 UYU       0.032700
     53 H28        -29.4480    18.5160    -7.3940 hc         1 UYU       0.034700
     54 H29        -29.2250    16.9090    -8.0820 hc         1 UYU       0.034700
     55 H30        -30.8270    17.4520    -7.5910 hc         1 UYU       0.034700
     56 H31        -30.1110    17.1130    -3.9120 hc         1 UYU       0.051700
     57 H32        -27.4270    18.7020    -4.0960 hc         1 UYU       0.043200
     58 H33        -27.6150    19.2210    -5.7550 hc         1 UYU       0.043200
     59 H35        -33.3600    16.1790    -5.2780 hc         1 UYU       0.045200
     60 H36        -32.1590    15.8160    -4.0500 hc         1 UYU       0.045200
     61 H37        -31.8180    15.5840    -7.0660 hc         1 UYU       0.040700
     62 H38        -31.8410    14.2850    -5.8940 hc         1 UYU       0.040700
     63 H39        -29.7100    14.9960    -4.9300 hc         1 UYU       0.040200
     64 H40        -29.5130    14.8380    -6.6720 hc         1 UYU       0.040200
     65 H41        -32.0120    19.7060    -5.2050 ha         1 UYU       0.177000
     66 H44        -36.5170    20.1070    -6.7550 hc         1 UYU       0.051700
     67 H45        -36.5530    18.8220    -5.5500 hc         1 UYU       0.051700
     68 H46        -37.9550    20.8330    -4.9980 h1         1 UYU       0.036700
     69 H47        -36.7670    22.8820    -4.1890 hc         1 UYU       0.063700
     70 H48        -36.5950    22.6020    -5.9250 hc         1 UYU       0.063700
     71 H49        -25.5160    15.6940   -11.0810 hc         1 UYU       0.037033
     72 H50        -26.1610    17.0820   -11.9690 hc         1 UYU       0.037033
     73 H51        -24.6740    16.2900   -12.5150 hc         1 UYU       0.037033
     74 H52        -33.4640    23.6940    -4.7610 ho         1 UYU       0.443000
     75 H27        -37.0110    19.5260    -3.3010 ho         1 UYU       0.439000
@<TRIPOS>BOND
     1     1     2 1   
     2     1     7 1   
     3     1    15 1   
     4     1    31 1   
     5     2     3 1   
     6     2    32 1   
     7     2    33 1   
     8     3     4 1   
     9     3    34 1   
    10     3    35 1   
    11     4     5 1   
    12     4    36 1   
    13     4    37 1   
    14     5     6 1   
    15     5    14 1   
    16     5    29 1   
    17     6    38 1   
    18     6    39 1   
    19     6    40 1   
    20     7     8 1   
    21     7    19 1   
    22     7    41 1   
    23     8    17 1   
    24     8    18 1   
    25     8    23 1   
    26     9    18 1   
    27     9    19 1   
    28     9    42 1   
    29     9    43 1   
    30    10    24 1   
    31    10    25 2   
    32    10    44 1   
    33    11    12 1   
    34    11    28 1   
    35    11    30 1   
    36    11    45 1   
    37    12    13 2   
    38    12    25 1   
    39    13    46 1   
    40    13    47 1   
    41    14    48 1   
    42    14    49 1   
    43    15    50 1   
    44    15    51 1   
    45    15    52 1   
    46    16    27 1   
    47    16    75 1   
    48    17    53 1   
    49    17    54 1   
    50    17    55 1   
    51    18    20 1   
    52    18    56 1   
    53    19    57 1   
    54    19    58 1   
    55    20    21 1   
    56    20    24 2   
    57    21    22 1   
    58    21    59 1   
    59    21    60 1   
    60    22    23 1   
    61    22    61 1   
    62    22    62 1   
    63    23    63 1   
    64    23    64 1   
    65    24    65 1   
    66    25    26 1   
    67    26    27 1   
    68    26    66 1   
    69    26    67 1   
    70    27    28 1   
    71    27    68 1   
    72    28    69 1   
    73    28    70 1   
    74    29    71 1   
    75    29    72 1   
    76    29    73 1   
    77    30    74 1   
@<TRIPOS>SUBSTRUCTURE
     1 UYU         1 TEMP              0 ****  ****    0 ROOT
