@<TRIPOS>MOLECULE
UYW
   37    38     1     0     0
SMALL
abcg2


@<TRIPOS>ATOM
      1 N1          44.3940   -39.7450    -5.9050 nu         1 UYW      -0.644600
      2 C7          42.6610   -37.9250   -11.7110 ca         1 UYW      -0.023000
      3 C8          42.2570   -37.4130   -10.4840 ca         1 UYW      -0.146000
      4 N2          43.1030   -38.3640    -4.5990 nv         1 UYW      -0.600800
      5 C9          42.7840   -37.9450    -9.3230 ca         1 UYW      -0.030000
      6 C1          42.1070   -43.4530   -11.2100 ca         1 UYW      -0.099500
      7 C5          44.1220   -39.4860   -10.6080 ca         1 UYW       0.193100
      8 C6          43.5840   -38.9560   -11.7790 ca         1 UYW      -0.184000
      9 N3          44.5070   -39.9070    -3.6190 nv         1 UYW      -0.600800
     10 C4          45.1980   -41.3070   -11.7210 c3         1 UYW       0.211900
     11 C3          43.9650   -42.1240   -11.9990 ca         1 UYW      -0.143300
     12 C2          43.2270   -42.6770   -10.9560 ca         1 UYW      -0.086000
     13 N           43.8700   -39.1530    -6.9970 n2         1 UYW      -0.590100
     14 C           41.7300   -43.6860   -12.5240 ca         1 UYW       0.133000
     15 O           45.0490   -40.4660   -10.5900 os         1 UYW      -0.362100
     16 C10         43.7130   -38.9870    -9.3610 ca         1 UYW      -0.224900
     17 C11         44.2490   -39.5730    -8.1360 ce         1 UYW       0.524800
     18 C12         43.9950   -39.3310    -4.6930 cz         1 UYW       0.952600
     19 C13         43.5620   -42.3670   -13.3070 ca         1 UYW      -0.086000
     20 C14         42.4500   -43.1510   -13.5800 ca         1 UYW      -0.099500
     21 CL          40.3300   -44.6540   -12.8470 cl         1 UYW      -0.179000
     22 H11         45.0690   -40.4990    -5.9890 hn         1 UYW       0.359000
     23 H7          42.2560   -37.5210   -12.6290 ha         1 UYW       0.133000
     24 H8          41.5360   -36.6090   -10.4360 ha         1 UYW       0.134000
     25 H1          42.8010   -38.0180    -3.7040 hn         1 UYW       0.383250
     26 H9          42.4690   -37.5570    -8.3630 ha         1 UYW       0.118000
     27 H6          43.8810   -39.3300   -12.7490 ha         1 UYW       0.137000
     28 H12         44.2260   -39.6230    -2.6950 hn         1 UYW       0.383250
     29 H13         45.1970   -40.6380    -3.6860 hn         1 UYW       0.383250
     30 H4          46.0340   -41.9600   -11.4690 h1         1 UYW       0.072700
     31 H5          45.4970   -40.7410   -12.6090 h1         1 UYW       0.072700
     32 H3          43.5160   -42.5060    -9.9260 ha         1 UYW       0.115000
     33 H10         44.9710   -40.3820    -8.2290 h4         1 UYW       0.018800
     34 H14         44.1170   -41.9360   -14.1310 ha         1 UYW       0.115000
     35 H15         42.1460   -43.3300   -14.6020 ha         1 UYW       0.136500
     36 H           42.7300   -37.9410    -5.4340 hn         1 UYW       0.383250
     37 H2          41.5380   -43.8730   -10.3920 ha         1 UYW       0.136500
@<TRIPOS>BOND
     1     1    13 1   
     2     1    18 2   
     3     1    22 1   
     4     2     3 ar  
     5     2     8 ar  
     6     2    23 1   
     7     3     5 ar  
     8     3    24 1   
     9     4    18 1   
    10     4    25 1   
    11     4    36 1   
    12     5    16 ar  
    13     5    26 1   
    14     6    12 ar  
    15     6    14 ar  
    16     6    37 1   
    17     7     8 ar  
    18     7    15 1   
    19     7    16 ar  
    20     8    27 1   
    21     9    18 1   
    22     9    28 1   
    23     9    29 1   
    24    10    11 1   
    25    10    15 1   
    26    10    30 1   
    27    10    31 1   
    28    11    12 ar  
    29    11    19 ar  
    30    12    32 1   
    31    13    17 2   
    32    14    20 ar  
    33    14    21 1   
    34    16    17 1   
    35    17    33 1   
    36    19    20 ar  
    37    19    34 1   
    38    20    35 1   
@<TRIPOS>SUBSTRUCTURE
     1 UYW         1 TEMP              0 ****  ****    0 ROOT
