@<TRIPOS>MOLECULE
UYW
   37    38     1     0     0
SMALL
No Charge or Current Charge


@<TRIPOS>ATOM
      1 N1          44.3870   -39.6010    -5.6870 nu         1 UYW      -0.644600
      2 C7          42.5900   -38.0060   -11.7300 ca         1 UYW      -0.023000
      3 C8          42.2010   -37.4490   -10.5040 ca         1 UYW      -0.146000
      4 N2          43.2410   -38.1380    -4.3350 nv         1 UYW      -0.600800
      5 C9          42.7210   -37.9550    -9.3020 ca         1 UYW      -0.030000
      6 C1          42.1240   -43.7120   -11.5260 ca         1 UYW      -0.099500
      7 C5          44.0250   -39.5940   -10.5490 ca         1 UYW       0.193100
      8 C6          43.5010   -39.0730   -11.7540 ca         1 UYW      -0.184000
      9 N3          44.6130   -39.6700    -3.4030 nv         1 UYW      -0.600800
     10 C4          45.2260   -41.4460   -11.6990 c3         1 UYW       0.211900
     11 C3          43.9880   -42.2440   -12.1090 ca         1 UYW      -0.143300
     12 C2          43.2640   -42.9810   -11.1480 ca         1 UYW      -0.086000
     13 N           43.8640   -39.0860    -6.8730 n2         1 UYW      -0.590100
     14 C           41.7050   -43.7160   -12.8650 ca         1 UYW       0.133000
     15 O           44.9270   -40.6430   -10.5380 os         1 UYW      -0.362100
     16 C10         43.6390   -39.0300    -9.3140 ca         1 UYW      -0.224900
     17 C11         44.1990   -39.5800    -8.0400 ce         1 UYW       0.524800
     18 C12         44.0780   -39.1320    -4.4670 cz         1 UYW       0.952600
     19 C13         43.5640   -42.2590   -13.4540 ca         1 UYW      -0.086000
     20 C14         42.4240   -42.9920   -13.8290 ca         1 UYW      -0.099500
     21 Cl          40.2790   -44.6310   -13.3370 cl         1 UYW      -0.179000
     22 H11         45.0480   -40.3780    -5.6910 hn         1 UYW       0.359000
     23 H7          42.1890   -37.6090   -12.6610 ha         1 UYW       0.133000
     24 H8          41.4950   -36.6210   -10.4830 ha         1 UYW       0.134000
     25 H1          42.9840   -37.7500    -3.4440 hn         1 UYW       0.383250
     26 H9          42.4050   -37.5040    -8.3630 ha         1 UYW       0.118000
     27 H6          43.7910   -39.4780   -12.7170 ha         1 UYW       0.137000
     28 H12         44.3980   -39.3420    -2.4770 hn         1 UYW       0.383250
     29 H13         45.2610   -40.4370    -3.4670 hn         1 UYW       0.383250
     30 H4          46.0320   -42.1520   -11.4630 h1         1 UYW       0.072700
     31 H5          45.5810   -40.8210   -12.5280 h1         1 UYW       0.072700
     32 H3          43.5820   -42.9830   -10.1070 ha         1 UYW       0.115000
     33 H10         44.9010   -40.4150    -8.1100 h4         1 UYW       0.018800
     34 H14         44.1140   -41.7020   -14.2090 ha         1 UYW       0.115000
     35 H15         42.0980   -42.9990   -14.8660 ha         1 UYW       0.136500
     36 H           42.8360   -37.7290    -5.1600 hn         1 UYW       0.383250
     37 H2          41.5670   -44.2760   -10.7820 ha         1 UYW       0.136500
@<TRIPOS>BOND
     1     1    13 1   
     2     1    18 2   
     3     1    22 1   
     4     2     3 ar  
     5     2     8 ar  
     6     2    23 1   
     7     3     5 ar  
     8     3    24 1   
     9     4    18 1   
    10     4    25 1   
    11     4    36 1   
    12     5    16 ar  
    13     5    26 1   
    14     6    12 ar  
    15     6    14 ar  
    16     6    37 1   
    17     7     8 ar  
    18     7    15 1   
    19     7    16 ar  
    20     8    27 1   
    21     9    18 1   
    22     9    28 1   
    23     9    29 1   
    24    10    11 1   
    25    10    15 1   
    26    10    30 1   
    27    10    31 1   
    28    11    12 ar  
    29    11    19 ar  
    30    12    32 1   
    31    13    17 2   
    32    14    20 ar  
    33    14    21 1   
    34    16    17 1   
    35    17    33 1   
    36    19    20 ar  
    37    19    34 1   
    38    20    35 1   
@<TRIPOS>SUBSTRUCTURE
     1 UYW         1 TEMP              0 ****  ****    0 ROOT
