@<TRIPOS>MOLECULE
UYX
   51    54     1     0     0
SMALL
abcg2


@<TRIPOS>ATOM
      1 C10        130.5870   125.7920   113.7400 c6         1 UYX      -0.065400
      2 C13        133.1220   128.5350   113.2090 c3         1 UYX       0.150800
      3 C15        133.2330   128.6830   111.6930 c3         1 UYX       0.104000
      4 C17        133.3680   126.5820   110.4090 c          1 UYX       0.605600
      5 C20        130.3080   124.6810   118.0300 ca         1 UYX      -0.040000
      6 C21        134.2160   125.5130   109.8760 ca         1 UYX      -0.210600
      7 C22        135.6040   125.5850   110.0310 ca         1 UYX       0.121600
      8 C24        130.1180   124.3320   119.3610 ca         1 UYX      -0.164000
      9 C26        136.4240   124.5730   109.5240 ca         1 UYX      -0.176000
     10 C28        134.4600   123.4160   108.7090 ca         1 UYX      -0.157000
     11 C08        130.8920   125.4420   115.1940 c6         1 UYX      -0.158700
     12 C09        132.4050   125.5970   115.4480 c6         1 UYX      -0.065400
     13 C11        132.8750   126.9850   115.0350 c6         1 UYX       0.167300
     14 C12        131.1160   127.1800   113.4030 c6         1 UYX       0.167300
     15 C14        130.4480   124.0440   115.5750 c          1 UYX       0.585700
     16 C16        130.2570   123.7150   117.0200 ca         1 UYX      -0.189600
     17 C18        135.4140   127.7020   111.2170 c          1 UYX       0.622000
     18 C19        130.0140   122.3810   117.3730 ca         1 UYX      -0.040000
     19 C23        129.8250   122.0140   118.6950 ca         1 UYX      -0.164000
     20 C25        133.6530   124.4190   109.2100 ca         1 UYX      -0.011000
     21 C27        129.8810   123.0040   119.6630 ca         1 UYX       0.191000
     22 C29        135.8480   123.5000   108.8680 ca         1 UYX      -0.042000
     23 F01        129.6970   122.6570   120.9570 f          1 UYX      -0.178000
     24 N05        132.5570   127.2650   113.6380 n3         1 UYX      -0.725600
     25 N06        134.0310   127.6140   111.0770 n          1 UYX      -0.363400
     26 N07        136.1380   126.6730   110.6880 ns         1 UYX      -0.508600
     27 O02        130.2830   123.1830   114.7240 o          1 UYX      -0.522100
     28 O04        135.9520   128.6460   111.7790 o          1 UYX      -0.569000
     29 H1         129.5100   125.7590   113.5610 hc         1 UYX       0.058700
     30 H2         131.0510   125.0580   113.0790 hc         1 UYX       0.058700
     31 H3         134.1190   128.6200   113.6400 h1         1 UYX       0.044700
     32 H4         132.5350   129.3920   113.5810 h1         1 UYX       0.044700
     33 H5         133.7080   129.6350   111.4650 h1         1 UYX       0.072700
     34 H6         132.2600   128.6570   111.2150 h1         1 UYX       0.072700
     35 H7         130.4900   125.7190   117.7940 ha         1 UYX       0.130000
     36 H8         130.1520   125.0710   120.1490 ha         1 UYX       0.137000
     37 H9         137.4970   124.6420   109.6480 ha         1 UYX       0.122000
     38 H10        134.0230   122.5710   108.1950 ha         1 UYX       0.125000
     39 H11        130.3730   126.1610   115.8340 hc         1 UYX       0.056700
     40 H12        132.9410   124.8420   114.8660 hc         1 UYX       0.058700
     41 H13        132.6430   125.4340   116.5000 hc         1 UYX       0.058700
     42 H14        133.9560   127.0590   115.1650 h1         1 UYX       0.034950
     43 H15        132.4110   127.7340   115.7030 h1         1 UYX       0.034950
     44 H16        130.5840   127.9370   114.0080 h1         1 UYX       0.034950
     45 H17        130.9190   127.3970   112.3560 h1         1 UYX       0.034950
     46 H18        129.9760   121.6330   116.5940 ha         1 UYX       0.130000
     47 H19        129.6400   120.9870   118.9790 ha         1 UYX       0.137000
     48 H20        132.5780   124.3800   109.0990 ha         1 UYX       0.141000
     49 H21        136.4830   122.7170   108.4750 ha         1 UYX       0.119000
     50 H23        137.1400   126.7510   110.7910 hn         1 UYX       0.459000
     51 O03        132.1510   126.5940   110.2800 o          1 UYX      -0.532000
@<TRIPOS>BOND
     1     1    11 1   
     2     1    14 1   
     3     1    29 1   
     4     1    30 1   
     5     2     3 1   
     6     2    24 1   
     7     2    31 1   
     8     2    32 1   
     9     3    25 1   
    10     3    33 1   
    11     3    34 1   
    12     4     6 1   
    13     4    25 1   
    14     4    51 2   
    15     5     8 ar  
    16     5    16 ar  
    17     5    35 1   
    18     6     7 ar  
    19     6    20 ar  
    20     7     9 ar  
    21     7    26 1   
    22     8    21 ar  
    23     8    36 1   
    24     9    22 ar  
    25     9    37 1   
    26    10    20 ar  
    27    10    22 ar  
    28    10    38 1   
    29    11    12 1   
    30    11    15 1   
    31    11    39 1   
    32    12    13 1   
    33    12    40 1   
    34    12    41 1   
    35    13    24 1   
    36    13    42 1   
    37    13    43 1   
    38    14    24 1   
    39    14    44 1   
    40    14    45 1   
    41    15    16 1   
    42    15    27 2   
    43    16    18 ar  
    44    17    25 1   
    45    17    26 1   
    46    17    28 2   
    47    18    19 ar  
    48    18    46 1   
    49    19    21 ar  
    50    19    47 1   
    51    20    48 1   
    52    21    23 1   
    53    22    49 1   
    54    26    50 1   
@<TRIPOS>SUBSTRUCTURE
     1 UYX         1 TEMP              0 ****  ****    0 ROOT
