@<TRIPOS>MOLECULE
UYX
   51    54     1     0     0
SMALL
No Charge or Current Charge


@<TRIPOS>ATOM
      1 C10        130.8540   125.4680   114.0200 c6         1 UYX      -0.065400
      2 C13        133.1280   128.4730   113.1970 c3         1 UYX       0.150800
      3 C15        133.0620   128.6180   111.6520 c3         1 UYX       0.104000
      4 C17        133.3450   126.4830   110.3770 c          1 UYX       0.605600
      5 C20        130.4700   124.5300   118.3610 ca         1 UYX      -0.040000
      6 C21        134.2670   125.5230   109.6770 ca         1 UYX      -0.210600
      7 C22        135.6220   125.8440   109.5690 ca         1 UYX       0.121600
      8 C24        129.8050   124.3530   119.5870 ca         1 UYX      -0.164000
      9 C26        136.5190   124.9820   108.9220 ca         1 UYX      -0.176000
     10 C28        134.6910   123.4430   108.4760 ca         1 UYX      -0.157000
     11 C08        131.3430   125.1700   115.4610 c6         1 UYX      -0.158700
     12 C09        132.8380   125.5320   115.6600 c6         1 UYX      -0.065400
     13 C11        133.1350   126.9660   115.1560 c6         1 UYX       0.167300
     14 C12        131.2340   126.9070   113.5940 c6         1 UYX       0.167300
     15 C14        130.9810   123.7550   115.9710 c          1 UYX       0.585700
     16 C16        130.2770   123.6070   117.3040 ca         1 UYX      -0.189600
     17 C18        135.2860   127.9610   110.7870 c          1 UYX       0.622000
     18 C19        129.4240   122.5000   117.5110 ca         1 UYX      -0.040000
     19 C23        128.7610   122.3290   118.7400 ca         1 UYX      -0.164000
     20 C25        133.7960   124.3130   109.1250 ca         1 UYX      -0.011000
     21 C27        128.9520   123.2570   119.7720 ca         1 UYX       0.191000
     22 C29        136.0530   123.7750   108.3730 ca         1 UYX      -0.042000
     23 F01        128.3160   123.0910   120.9520 f          1 UYX      -0.178000
     24 N05        132.7000   127.1570   113.7430 n3         1 UYX      -0.725600
     25 N06        133.9290   127.6440   110.9250 n          1 UYX      -0.363400
     26 N07        136.0450   127.0500   110.1230 ns         1 UYX      -0.508600
     27 O02        131.2770   122.7670   115.3080 o          1 UYX      -0.522100
     28 O04        135.7920   128.9800   111.2260 o          1 UYX      -0.569000
     29 H1         129.7660   125.3360   113.9510 hc         1 UYX       0.058700
     30 H2         131.3040   124.7550   113.3160 hc         1 UYX       0.058700
     31 H3         134.1680   128.6670   113.4910 h1         1 UYX       0.044700
     32 H4         132.5230   129.2740   113.6440 h1         1 UYX       0.044700
     33 H5         133.3690   129.6380   111.3870 h1         1 UYX       0.072700
     34 H6         132.0210   128.5250   111.3210 h1         1 UYX       0.072700
     35 H7         131.1420   125.3780   118.2520 ha         1 UYX       0.130000
     36 H8         129.9550   125.0630   120.3960 ha         1 UYX       0.137000
     37 H9         137.5720   125.2400   108.8420 ha         1 UYX       0.122000
     38 H10        134.3270   122.5100   108.0510 ha         1 UYX       0.125000
     39 H11        130.7930   125.8650   116.1070 hc         1 UYX       0.056700
     40 H12        133.4670   124.8190   115.1090 hc         1 UYX       0.058700
     41 H13        133.1200   125.4450   116.7180 hc         1 UYX       0.058700
     42 H14        134.2150   127.1500   115.2510 h1         1 UYX       0.034950
     43 H15        132.6260   127.6900   115.8100 h1         1 UYX       0.034950
     44 H16        130.6670   127.6230   114.2090 h1         1 UYX       0.034950
     45 H17        130.9100   127.0560   112.5560 h1         1 UYX       0.034950
     46 H18        129.2670   121.7710   116.7170 ha         1 UYX       0.130000
     47 H19        128.1020   121.4780   118.8920 ha         1 UYX       0.137000
     48 H20        132.7430   124.0440   109.1980 ha         1 UYX       0.141000
     49 H21        136.7430   123.1010   107.8700 ha         1 UYX       0.119000
     50 H23        137.0260   127.2910   110.0350 hn         1 UYX       0.459000
     51 O03        132.1420   126.2620   110.4320 o          1 UYX      -0.532000
@<TRIPOS>BOND
     1     1    11 1   
     2     1    14 1   
     3     1    29 1   
     4     1    30 1   
     5     2     3 1   
     6     2    24 1   
     7     2    31 1   
     8     2    32 1   
     9     3    25 1   
    10     3    33 1   
    11     3    34 1   
    12     4     6 1   
    13     4    25 1   
    14     4    51 2   
    15     5     8 ar  
    16     5    16 ar  
    17     5    35 1   
    18     6     7 ar  
    19     6    20 ar  
    20     7     9 ar  
    21     7    26 1   
    22     8    21 ar  
    23     8    36 1   
    24     9    22 ar  
    25     9    37 1   
    26    10    20 ar  
    27    10    22 ar  
    28    10    38 1   
    29    11    12 1   
    30    11    15 1   
    31    11    39 1   
    32    12    13 1   
    33    12    40 1   
    34    12    41 1   
    35    13    24 1   
    36    13    42 1   
    37    13    43 1   
    38    14    24 1   
    39    14    44 1   
    40    14    45 1   
    41    15    16 1   
    42    15    27 2   
    43    16    18 ar  
    44    17    25 1   
    45    17    26 1   
    46    17    28 2   
    47    18    19 ar  
    48    18    46 1   
    49    19    21 ar  
    50    19    47 1   
    51    20    48 1   
    52    21    23 1   
    53    22    49 1   
    54    26    50 1   
@<TRIPOS>SUBSTRUCTURE
     1 UYX         1 TEMP              0 ****  ****    0 ROOT
