@<TRIPOS>MOLECULE
UYY
   20    20     1     0     0
SMALL
abcg2


@<TRIPOS>ATOM
      1 C7           0.1080    12.5450   -35.6810 c          1 UYY       0.617700
      2 O1           1.2240    13.0740   -35.7330 o          1 UYY      -0.631100
      3 C1          -2.4260    12.8710   -35.1960 ca         1 UYY       0.169100
      4 C5          -0.8760    14.7080   -35.0410 ca         1 UYY      -0.027000
      5 C6          -1.1030    13.3550   -35.3050 ca         1 UYY      -0.180600
      6 C4          -1.8970    15.5710   -34.6790 ca         1 UYY      -0.156000
      7 C3          -3.1920    15.0780   -34.5740 ca         1 UYY      -0.051000
      8 C2          -3.4570    13.7390   -34.8300 ca         1 UYY      -0.209000
      9 N           -0.0560    11.2390   -35.9580 nt         1 UYY      -0.599000
     10 C           -3.9790    11.0320   -35.3470 c3         1 UYY       0.155900
     11 H1           0.1400    15.0660   -35.1280 ha         1 UYY       0.145000
     12 H2          -1.6870    16.6140   -34.4820 ha         1 UYY       0.122000
     13 H3          -4.0080    15.7320   -34.2920 ha         1 UYY       0.115000
     14 H4          -4.4690    13.3740   -34.7440 ha         1 UYY       0.117000
     15 H5           0.7560    10.6980   -36.2110 hn         1 UYY       0.325000
     16 H6          -0.9630    10.8040   -35.9140 hn         1 UYY       0.325000
     17 H7          -3.8950     9.9790   -35.6010 h1         1 UYY       0.046367
     18 H8          -4.3560    11.1380   -34.3280 h1         1 UYY       0.046367
     19 H9          -4.6520    11.5300   -36.0470 h1         1 UYY       0.046367
     20 O           -2.6530    11.5570   -35.4540 os         1 UYY      -0.378100
@<TRIPOS>BOND
     1     1     2 2   
     2     1     5 1   
     3     1     9 1   
     4     3     5 ar  
     5     3     8 ar  
     6     3    20 1   
     7     4     5 ar  
     8     4     6 ar  
     9     4    11 1   
    10     6     7 ar  
    11     6    12 1   
    12     7     8 ar  
    13     7    13 1   
    14     8    14 1   
    15     9    15 1   
    16     9    16 1   
    17    10    17 1   
    18    10    18 1   
    19    10    19 1   
    20    10    20 1   
@<TRIPOS>SUBSTRUCTURE
     1 UYY         1 TEMP              0 ****  ****    0 ROOT
