@<TRIPOS>MOLECULE
UYY
   20    20     1     0     0
SMALL
No Charge or Current Charge


@<TRIPOS>ATOM
      1 C7           0.1230    12.5340   -35.6920 c          1 UYY       0.617700
      2 O1           1.2500    12.9960   -35.7750 o          1 UYY      -0.631100
      3 C1          -2.4030    12.8810   -35.1960 ca         1 UYY       0.169100
      4 C5          -0.8450    14.7530   -35.0340 ca         1 UYY      -0.027000
      5 C6          -1.0740    13.3820   -35.3030 ca         1 UYY      -0.180600
      6 C4          -1.8960    15.6070   -34.6690 ca         1 UYY      -0.156000
      7 C3          -3.2000    15.1110   -34.5640 ca         1 UYY      -0.051000
      8 C2          -3.4520    13.7570   -34.8260 ca         1 UYY      -0.209000
      9 N           -0.0430    11.2260   -35.9570 nt         1 UYY      -0.599000
     10 C           -3.9830    10.9730   -35.3620 c3         1 UYY       0.155900
     11 H1           0.1590    15.1680   -35.1070 ha         1 UYY       0.145000
     12 H2          -1.6980    16.6580   -34.4660 ha         1 UYY       0.122000
     13 H3          -4.0150    15.7740   -34.2810 ha         1 UYY       0.115000
     14 H4          -4.4760    13.4070   -34.7350 ha         1 UYY       0.117000
     15 H5           0.7520    10.6620   -36.2150 hn         1 UYY       0.325000
     16 H6          -0.9700    10.8280   -35.8930 hn         1 UYY       0.325000
     17 H7          -3.9500     9.9040   -35.6070 h1         1 UYY       0.046367
     18 H8          -4.3850    11.0750   -34.3460 h1         1 UYY       0.046367
     19 H9          -4.6700    11.4610   -36.0650 h1         1 UYY       0.046367
     20 O           -2.6640    11.5460   -35.4520 os         1 UYY      -0.378100
@<TRIPOS>BOND
     1     1     2 2   
     2     1     5 1   
     3     1     9 1   
     4     3     5 ar  
     5     3     8 ar  
     6     3    20 1   
     7     4     5 ar  
     8     4     6 ar  
     9     4    11 1   
    10     6     7 ar  
    11     6    12 1   
    12     7     8 ar  
    13     7    13 1   
    14     8    14 1   
    15     9    15 1   
    16     9    16 1   
    17    10    17 1   
    18    10    18 1   
    19    10    19 1   
    20    10    20 1   
@<TRIPOS>SUBSTRUCTURE
     1 UYY         1 TEMP              0 ****  ****    0 ROOT
