@<TRIPOS>MOLECULE
UYZ
   73    78     1     0     0
SMALL
No Charge or Current Charge


@<TRIPOS>ATOM
      1 C10         43.2350   -31.6940    22.8640 ca         1 UYZ      -0.170000
      2 C13         44.5900   -32.0050    23.0880 ca         1 UYZ       0.303000
      3 C15         44.2910   -33.4090    25.1870 c6         1 UYZ       0.197800
      4 C17         43.5930   -35.1830    26.8880 c6         1 UYZ      -0.098900
      5 C20         42.7180   -37.0060    24.7430 c6         1 UYZ       0.218300
      6 C22         41.2470   -38.0650    26.5160 ca         1 UYZ       0.435900
      7 C24         39.4460   -38.4890    27.8850 ca         1 UYZ       0.178900
      8 C26         39.9300   -40.0720    26.3060 ca         1 UYZ       0.142500
      9 C28         41.6560   -40.0110    24.8290 cc         1 UYZ      -0.208200
     10 C02         42.3240   -24.7200    22.5170 c6         1 UYZ      -0.047000
     11 C03         43.4520   -23.8070    21.9380 c3         1 UYZ      -0.083100
     12 C04         41.4710   -25.3540    21.3780 c6         1 UYZ      -0.066900
     13 C05         42.2600   -26.4150    20.5660 c6         1 UYZ       0.168300
     14 C07         43.4670   -28.5590    20.6640 c3         1 UYZ       0.220100
     15 C08         43.8640   -29.7660    21.5090 ca         1 UYZ      -0.116300
     16 C09         42.8730   -30.5830    22.0830 ca         1 UYZ      -0.063000
     17 C11         45.2200   -30.0760    21.7230 ca         1 UYZ      -0.063000
     18 C12         45.5780   -31.1890    22.5040 ca         1 UYZ      -0.170000
     19 C16         44.1110   -34.9460    25.4410 c6         1 UYZ       0.133400
     20 C18         43.2470   -36.6650    27.1700 c6         1 UYZ       0.218300
     21 C19         43.0490   -35.5220    24.4590 c6         1 UYZ      -0.098900
     22 C27         40.9850   -39.3000    25.8840 ca         1 UYZ      -0.244800
     23 C29         40.9610   -41.1920    24.6360 cd         1 UYZ      -0.177100
     24 C32         46.2350   -33.8780    23.6680 c6         1 UYZ       0.109800
     25 C33         46.3840   -35.2710    24.3650 c          1 UYZ       0.564000
     26 C35         43.6740   -26.9260    22.5160 c6         1 UYZ       0.168300
     27 C36         42.9200   -25.8760    23.3740 c6         1 UYZ      -0.066900
     28 N06         42.8040   -27.4880    21.4430 n3         1 UYZ      -0.717600
     29 N14         44.9420   -33.1300    23.8720 nh         1 UYZ      -0.794400
     30 N21         42.2940   -37.1880    26.1540 nh         1 UYZ      -0.777300
     31 N23         40.4620   -37.6660    27.5380 nb         1 UYZ      -0.302000
     32 N25         39.1360   -39.6770    27.3170 nb         1 UYZ      -0.228000
     33 N30         39.8790   -41.2330    25.5490 na         1 UYZ      -0.316400
     34 N31         45.3940   -35.6540    25.2450 ns         1 UYZ      -0.503900
     35 H1          42.4550   -32.3210    23.2840 ha         1 UYZ       0.113500
     36 H2          44.9130   -32.9870    25.9910 h1         1 UYZ       0.054200
     37 H3          43.3120   -32.9150    25.2610 h1         1 UYZ       0.054200
     38 H4          44.3390   -34.8390    27.6170 hc         1 UYZ       0.064950
     39 H5          42.6940   -34.5750    27.0610 hc         1 UYZ       0.064950
     40 H6          41.9170   -37.3190    24.0570 h1         1 UYZ       0.056950
     41 H7          43.5990   -37.6280    24.5270 h1         1 UYZ       0.056950
     42 H8          38.8120   -38.1620    28.7070 h5         1 UYZ       0.044100
     43 H9          42.5520   -39.7180    24.2860 ha         1 UYZ       0.204000
     44 H10         40.6010   -24.3790    23.8570 hc         1 UYZ       0.032367
     45 H11         41.9970   -23.3600    24.2280 hc         1 UYZ       0.032367
     46 H12         40.9800   -22.9930    22.8270 hc         1 UYZ       0.032367
     47 H13         44.0490   -23.3530    22.7390 hc         1 UYZ       0.032367
     48 H14         44.1470   -24.3560    21.2920 hc         1 UYZ       0.032367
     49 H15         43.0340   -22.9880    21.3390 hc         1 UYZ       0.032367
     50 H16         41.1020   -24.5730    20.6990 hc         1 UYZ       0.045700
     51 H17         40.5790   -25.8330    21.8050 hc         1 UYZ       0.045700
     52 H18         43.0730   -25.9250    20.0120 h1         1 UYZ       0.030200
     53 H19         41.5830   -26.8500    19.8160 h1         1 UYZ       0.030200
     54 H20         42.7910   -28.9130    19.8730 h1         1 UYZ       0.035200
     55 H21         44.3590   -28.1590    20.1610 h1         1 UYZ       0.035200
     56 H22         41.8210   -30.3540    21.9230 ha         1 UYZ       0.114000
     57 H23         45.9980   -29.4530    21.2870 ha         1 UYZ       0.114000
     58 H24         46.6300   -31.4020    22.6610 ha         1 UYZ       0.113500
     59 H25         42.8260   -36.7390    28.1830 h1         1 UYZ       0.056950
     60 H26         44.1660   -37.2690    27.1660 h1         1 UYZ       0.056950
     61 H27         43.3940   -35.4220    23.4210 hc         1 UYZ       0.064950
     62 H28         42.1230   -34.9360    24.5290 hc         1 UYZ       0.064950
     63 H29         41.1570   -42.0000    23.9320 h4         1 UYZ       0.218000
     64 H30         46.3940   -34.0630    22.5960 h1         1 UYZ       0.070200
     65 H31         47.0770   -33.2740    24.0340 h1         1 UYZ       0.070200
     66 H32         44.0210   -27.7260    23.1860 h1         1 UYZ       0.030200
     67 H33         44.5730   -26.4680    22.0780 h1         1 UYZ       0.030200
     68 H34         43.5990   -25.4730    24.1380 hc         1 UYZ       0.045700
     69 H35         42.1150   -26.3860    23.9210 hc         1 UYZ       0.045700
     70 H37         39.1940   -41.9760    25.6480 hn         1 UYZ       0.363000
     71 H38         45.5320   -36.5470    25.6990 hn         1 UYZ       0.319500
     72 O34         47.3480   -35.9980    24.1730 o          1 UYZ      -0.568000
     73 C01         41.4250   -23.8100    23.4080 c3         1 UYZ      -0.083100
@<TRIPOS>BOND
     1     1     2 ar  
     2     1    16 ar  
     3     1    35 1   
     4     2    18 ar  
     5     2    29 1   
     6     3    19 1   
     7     3    29 1   
     8     3    36 1   
     9     3    37 1   
    10     4    19 1   
    11     4    20 1   
    12     4    38 1   
    13     4    39 1   
    14     5    21 1   
    15     5    30 1   
    16     5    40 1   
    17     5    41 1   
    18     6    22 ar  
    19     6    30 1   
    20     6    31 ar  
    21     7    31 ar  
    22     7    32 ar  
    23     7    42 1   
    24     8    22 ar  
    25     8    32 ar  
    26     8    33 1   
    27     9    22 1   
    28     9    23 2   
    29     9    43 1   
    30    10    11 1   
    31    10    12 1   
    32    10    27 1   
    33    10    73 1   
    34    11    47 1   
    35    11    48 1   
    36    11    49 1   
    37    12    13 1   
    38    12    50 1   
    39    12    51 1   
    40    13    28 1   
    41    13    52 1   
    42    13    53 1   
    43    14    15 1   
    44    14    28 1   
    45    14    54 1   
    46    14    55 1   
    47    15    16 ar  
    48    15    17 ar  
    49    16    56 1   
    50    17    18 ar  
    51    17    57 1   
    52    18    58 1   
    53    19    21 1   
    54    19    34 1   
    55    20    30 1   
    56    20    59 1   
    57    20    60 1   
    58    21    61 1   
    59    21    62 1   
    60    23    33 1   
    61    23    63 1   
    62    24    25 1   
    63    24    29 1   
    64    24    64 1   
    65    24    65 1   
    66    25    34 1   
    67    25    72 2   
    68    26    27 1   
    69    26    28 1   
    70    26    66 1   
    71    26    67 1   
    72    27    68 1   
    73    27    69 1   
    74    33    70 1   
    75    34    71 1   
    76    44    73 1   
    77    45    73 1   
    78    46    73 1   
@<TRIPOS>SUBSTRUCTURE
     1 UYZ         1 TEMP              0 ****  ****    0 ROOT
