@<TRIPOS>MOLECULE
UYZ
   73    78     1     0     0
SMALL
abcg2


@<TRIPOS>ATOM
      1 C10         42.8480   -31.6070    22.9530 ca         1 UYZ      -0.170000
      2 C13         44.1810   -32.0070    23.1480 ca         1 UYZ       0.303000
      3 C15         43.7490   -33.3400    25.1660 c6         1 UYZ       0.197800
      4 C17         43.0900   -35.0420    26.8600 c6         1 UYZ      -0.098900
      5 C20         42.7960   -37.0930    24.8300 c6         1 UYZ       0.218300
      6 C22         41.5270   -38.3550    26.5120 ca         1 UYZ       0.435900
      7 C24         40.2260   -39.3630    28.1300 ca         1 UYZ       0.178900
      8 C26         40.4210   -40.4410    26.2210 ca         1 UYZ       0.142500
      9 C28         41.6540   -39.9560    24.3740 cc         1 UYZ      -0.208200
     10 C02         42.7560   -24.6630    22.4330 c6         1 UYZ      -0.047000
     11 C03         43.8330   -23.9190    21.6400 c3         1 UYZ      -0.083100
     12 C04         41.6930   -25.2420    21.4930 c6         1 UYZ      -0.066900
     13 C05         42.2130   -26.3950    20.6470 c6         1 UYZ       0.168300
     14 C07         43.1750   -28.5890    20.6640 c3         1 UYZ       0.220100
     15 C08         43.5260   -29.7920    21.4950 ca         1 UYZ      -0.116300
     16 C09         42.5390   -30.5200    22.1580 ca         1 UYZ      -0.063000
     17 C11         44.8380   -30.2050    21.6640 ca         1 UYZ      -0.063000
     18 C12         45.1710   -31.2810    22.4780 ca         1 UYZ      -0.170000
     19 C16         43.7360   -34.8250    25.4940 c6         1 UYZ       0.133400
     20 C18         42.9490   -36.5120    27.2170 c6         1 UYZ       0.218300
     21 C19         42.9210   -35.6180    24.4710 c6         1 UYZ      -0.098900
     22 C27         41.2650   -39.4600    25.6640 ca         1 UYZ      -0.244800
     23 C29         41.0360   -41.1580    24.2120 cd         1 UYZ      -0.177100
     24 C32         45.8840   -33.4570    24.0780 c6         1 UYZ       0.109800
     25 C33         46.1470   -34.7200    24.8700 c          1 UYZ       0.564000
     26 C35         43.8380   -26.9670    22.3160 c6         1 UYZ       0.168300
     27 C36         43.3690   -25.8320    23.2120 c6         1 UYZ      -0.066900
     28 N06         42.7600   -27.4560    21.4750 n3         1 UYZ      -0.717600
     29 N14         44.4920   -33.1050    23.9470 nh         1 UYZ      -0.794400
     30 N21         42.2780   -37.2740    26.1730 nh         1 UYZ      -0.777300
     31 N23         41.0050   -38.3620    27.7440 nb         1 UYZ      -0.302000
     32 N25         39.8750   -40.4260    27.4380 nb         1 UYZ      -0.228000
     33 N30         40.2890   -41.4430    25.3240 na         1 UYZ      -0.316400
     34 N31         45.1200   -35.2810    25.5230 ns         1 UYZ      -0.503900
     35 H1          42.0360   -32.1550    23.4120 ha         1 UYZ       0.113500
     36 H2          44.1840   -32.7820    26.0090 h1         1 UYZ       0.054200
     37 H3          42.7200   -33.0060    25.0620 h1         1 UYZ       0.054200
     38 H4          43.6700   -34.5450    27.6410 hc         1 UYZ       0.064950
     39 H5          42.1000   -34.5790    26.8430 hc         1 UYZ       0.064950
     40 H6          42.1010   -37.5340    24.1210 h1         1 UYZ       0.056950
     41 H7          43.7590   -37.6040    24.7040 h1         1 UYZ       0.056950
     42 H8          39.8330   -39.2910    29.1390 h5         1 UYZ       0.044100
     43 H9          42.3170   -39.5110    23.6520 ha         1 UYZ       0.204000
     44 H10         41.3230   -24.1670    23.9940 hc         1 UYZ       0.032367
     45 H11         42.8370   -23.2660    24.0990 hc         1 UYZ       0.032367
     46 H12         41.6450   -22.8470    22.8680 hc         1 UYZ       0.032367
     47 H13         44.5960   -23.5150    22.3090 hc         1 UYZ       0.032367
     48 H14         44.3400   -24.5570    20.9150 hc         1 UYZ       0.032367
     49 H15         43.3980   -23.0820    21.0890 hc         1 UYZ       0.032367
     50 H16         41.3030   -24.4590    20.8360 hc         1 UYZ       0.045700
     51 H17         40.8460   -25.6020    22.0890 hc         1 UYZ       0.045700
     52 H18         42.9560   -26.0260    19.9190 h1         1 UYZ       0.030200
     53 H19         41.3890   -26.8080    20.0580 h1         1 UYZ       0.030200
     54 H20         42.3450   -28.8360    19.9950 h1         1 UYZ       0.035200
     55 H21         44.0300   -28.3330    20.0150 h1         1 UYZ       0.035200
     56 H22         41.4980   -30.2400    22.0410 ha         1 UYZ       0.114000
     57 H23         45.6360   -29.6650    21.1670 ha         1 UYZ       0.114000
     58 H24         46.2170   -31.5300    22.5850 ha         1 UYZ       0.113500
     59 H25         42.3830   -36.6040    28.1380 h1         1 UYZ       0.056950
     60 H26         43.9340   -36.9570    27.4150 h1         1 UYZ       0.056950
     61 H27         43.3730   -35.5400    23.4810 hc         1 UYZ       0.064950
     62 H28         41.9200   -35.1830    24.4080 hc         1 UYZ       0.064950
     63 H29         41.0740   -41.8440    23.3820 h4         1 UYZ       0.218000
     64 H30         46.3220   -33.6200    23.0910 h1         1 UYZ       0.070200
     65 H31         46.4770   -32.6620    24.5570 h1         1 UYZ       0.070200
     66 H32         44.1980   -27.7860    22.9410 h1         1 UYZ       0.030200
     67 H33         44.7040   -26.6430    21.7100 h1         1 UYZ       0.030200
     68 H34         44.2110   -25.4810    23.8170 hc         1 UYZ       0.045700
     69 H35         42.6240   -26.2280    23.9100 hc         1 UYZ       0.045700
     70 H37         39.7460   -42.2790    25.4680 hn         1 UYZ       0.363000
     71 H38         45.3410   -36.1330    26.0200 hn         1 UYZ       0.319500
     72 O34         47.2830   -35.1690    24.9140 o          1 UYZ      -0.568000
     73 C01         42.1030   -23.6820    23.4030 c3         1 UYZ      -0.083100
@<TRIPOS>BOND
     1     1     2 ar  
     2     1    16 ar  
     3     1    35 1   
     4     2    18 ar  
     5     2    29 1   
     6     3    19 1   
     7     3    29 1   
     8     3    36 1   
     9     3    37 1   
    10     4    19 1   
    11     4    20 1   
    12     4    38 1   
    13     4    39 1   
    14     5    21 1   
    15     5    30 1   
    16     5    40 1   
    17     5    41 1   
    18     6    22 ar  
    19     6    30 1   
    20     6    31 ar  
    21     7    31 ar  
    22     7    32 ar  
    23     7    42 1   
    24     8    22 ar  
    25     8    32 ar  
    26     8    33 1   
    27     9    22 1   
    28     9    23 2   
    29     9    43 1   
    30    10    11 1   
    31    10    12 1   
    32    10    27 1   
    33    10    73 1   
    34    11    47 1   
    35    11    48 1   
    36    11    49 1   
    37    12    13 1   
    38    12    50 1   
    39    12    51 1   
    40    13    28 1   
    41    13    52 1   
    42    13    53 1   
    43    14    15 1   
    44    14    28 1   
    45    14    54 1   
    46    14    55 1   
    47    15    16 ar  
    48    15    17 ar  
    49    16    56 1   
    50    17    18 ar  
    51    17    57 1   
    52    18    58 1   
    53    19    21 1   
    54    19    34 1   
    55    20    30 1   
    56    20    59 1   
    57    20    60 1   
    58    21    61 1   
    59    21    62 1   
    60    23    33 1   
    61    23    63 1   
    62    24    25 1   
    63    24    29 1   
    64    24    64 1   
    65    24    65 1   
    66    25    34 1   
    67    25    72 2   
    68    26    27 1   
    69    26    28 1   
    70    26    66 1   
    71    26    67 1   
    72    27    68 1   
    73    27    69 1   
    74    33    70 1   
    75    34    71 1   
    76    44    73 1   
    77    45    73 1   
    78    46    73 1   
@<TRIPOS>SUBSTRUCTURE
     1 UYZ         1 TEMP              0 ****  ****    0 ROOT
