@<TRIPOS>MOLECULE
UZ0
   30    31     1     0     0
SMALL
bcc


@<TRIPOS>ATOM
      1 N1          -1.2110     0.0390     0.4240 n          1 UZ0      -0.383000
      2 C2          -1.5320     0.4320    -0.8610 c          1 UZ0       0.833500
      3 O2          -0.6970     0.6340    -1.7160 o          1 UZ0      -0.643500
      4 N3          -2.8730     0.5680    -1.1000 ns         1 UZ0      -0.604500
      5 C4          -3.9250     0.3660    -0.2180 c          1 UZ0       0.733700
      6 O4          -5.0740     0.5260    -0.5810 o          1 UZ0      -0.595500
      7 C5          -3.4980    -0.0310     1.1010 cc         1 UZ0      -0.325200
      8 C6          -2.1880    -0.1670     1.3590 cd         1 UZ0       0.062600
      9 C1           0.1830    -0.0820     0.8160 c5         1 UZ0       0.336500
     10 C7           1.0500    -1.0240    -0.0420 c5         1 UZ0       0.106500
     11 C3           2.1230    -0.0840    -0.6320 c5         1 UZ0       0.096100
     12 N2           1.6340    -1.9870     0.8890 n2         1 UZ0      -0.441200
     13 O3           3.3900    -0.6600    -0.7340 oh         1 UZ0      -0.584800
     14 C8           2.1270     1.0670     0.3710 c5         1 UZ0       0.145100
     15 N4           2.2640    -2.9070     0.3980 n1         1 UZ0       0.246000
     16 O1           0.7780     1.1810     0.7940 os         1 UZ0      -0.383600
     17 C9           2.5960     2.3700    -0.2210 c3         1 UZ0       0.144400
     18 N5           2.8460    -3.8050     0.0580 n1         1 UZ0      -0.056000
     19 O5           2.6350     3.3500     0.7880 oh         1 UZ0      -0.584800
     20 H1          -3.1150     0.8500    -2.0430 hn         1 UZ0       0.342500
     21 H2          -4.2320    -0.2080     1.8710 ha         1 UZ0       0.176000
     22 H3          -1.8370    -0.4570     2.3390 h4         1 UZ0       0.161000
     23 H4           0.1570    -0.4830     1.8330 h2         1 UZ0       0.087700
     24 H5           0.4760    -1.5420    -0.8130 h1         1 UZ0       0.079700
     25 H6           1.7640     0.2760    -1.5990 h1         1 UZ0       0.077700
     26 H7           3.5490    -0.9100    -1.6480 ho         1 UZ0       0.416000
     27 H8           2.7710     0.7940     1.2210 h1         1 UZ0       0.082700
     28 H9           3.5880     2.1940    -0.6570 h1         1 UZ0       0.033200
     29 H10          1.9260     2.6510    -1.0440 h1         1 UZ0       0.033200
     30 H12          2.9830     4.1610     0.4060 ho         1 UZ0       0.407000
@<TRIPOS>BOND
     1     1     2 1   
     2     1     8 1   
     3     1     9 1   
     4     2     3 2   
     5     2     4 1   
     6     4     5 1   
     7     4    20 1   
     8     5     6 2   
     9     5     7 1   
    10     7     8 2   
    11     7    21 1   
    12     8    22 1   
    13     9    10 1   
    14     9    16 1   
    15     9    23 1   
    16    10    11 1   
    17    10    12 1   
    18    10    24 1   
    19    11    13 1   
    20    11    14 1   
    21    11    25 1   
    22    12    15 1   
    23    13    26 1   
    24    14    16 1   
    25    14    17 1   
    26    14    27 1   
    27    15    18 3   
    28    17    19 1   
    29    17    28 1   
    30    17    29 1   
    31    19    30 1   
@<TRIPOS>SUBSTRUCTURE
     1 UZ0         1 TEMP              0 ****  ****    0 ROOT
