@<TRIPOS>MOLECULE
UZ0
   30    31     1     0     0
SMALL
No Charge or Current Charge


@<TRIPOS>ATOM
      1 N1          -1.1140    -0.0070     0.3560 n          1 UZ0      -0.316000
      2 C2          -1.6110     0.6950    -0.7670 c          1 UZ0       0.624000
      3 O2          -0.9150     1.3170    -1.5520 o          1 UZ0      -0.568000
      4 N3          -2.9540     0.6180    -0.9730 ns         1 UZ0      -0.470500
      5 C4          -3.8800    -0.0570    -0.2470 c          1 UZ0       0.591200
      6 O4          -5.0630    -0.0500    -0.5350 o          1 UZ0      -0.520000
      7 C5          -3.3140    -0.7790     0.8880 cc         1 UZ0      -0.375200
      8 C6          -1.9690    -0.7480     1.1730 cd         1 UZ0       0.012600
      9 C1           0.3270     0.0760     0.7200 c5         1 UZ0       0.359700
     10 C7           1.1360    -0.8360    -0.2740 c5         1 UZ0       0.106500
     11 C3           2.1750     0.1720    -0.8860 c5         1 UZ0       0.119300
     12 N2           1.8810    -1.8710     0.5120 n2         1 UZ0      -0.441200
     13 O3           3.4430    -0.4410    -1.1800 oh         1 UZ0      -0.707000
     14 C8           2.2520     1.2460     0.2450 c5         1 UZ0       0.168300
     15 N4           1.2660    -2.9200     0.7700 n1         1 UZ0       0.246000
     16 O1           0.8650     1.4070     0.6100 os         1 UZ0      -0.430000
     17 C9           2.8710     2.6030    -0.1910 c3         1 UZ0       0.167600
     18 N5           0.6030    -3.7970     1.0640 n1         1 UZ0      -0.056000
     19 O5           3.0560     3.4850     0.9340 oh         1 UZ0      -0.707000
     20 H1          -3.3020     1.1210    -1.7730 hn         1 UZ0       0.342500
     21 H2          -4.0220    -1.3360     1.4920 ha         1 UZ0       0.226000
     22 H3          -1.4970    -1.2620     2.0090 h4         1 UZ0       0.211000
     23 H4           0.4340    -0.2800     1.7520 h2         1 UZ0       0.087700
     24 H5           0.5060    -1.2950    -1.0500 h1         1 UZ0       0.079700
     25 H6           1.7570     0.6330    -1.7920 h1         1 UZ0       0.077700
     26 H7           3.4670    -1.2570    -0.6190 ho         1 UZ0       0.515000
     27 H8           2.8110     0.8640     1.1110 h1         1 UZ0       0.082700
     28 H9           3.8380     2.4050    -0.6730 h1         1 UZ0       0.033200
     29 H10          2.2160     3.0660    -0.9420 h1         1 UZ0       0.033200
     30 H12          3.3960     4.3400     0.5770 ho         1 UZ0       0.506000
@<TRIPOS>BOND
     1     1     2 1   
     2     1     8 1   
     3     1     9 1   
     4     2     3 2   
     5     2     4 1   
     6     4     5 1   
     7     4    20 1   
     8     5     6 2   
     9     5     7 1   
    10     7     8 2   
    11     7    21 1   
    12     8    22 1   
    13     9    10 1   
    14     9    16 1   
    15     9    23 1   
    16    10    11 1   
    17    10    12 1   
    18    10    24 1   
    19    11    13 1   
    20    11    14 1   
    21    11    25 1   
    22    12    15 1   
    23    13    26 1   
    24    14    16 1   
    25    14    17 1   
    26    14    27 1   
    27    15    18 3   
    28    17    19 1   
    29    17    28 1   
    30    17    29 1   
    31    19    30 1   
@<TRIPOS>SUBSTRUCTURE
     1 UZ0         1 TEMP              0 ****  ****    0 ROOT
