@<TRIPOS>MOLECULE
UZ2
   77    81     1     0     0
SMALL
abcg2


@<TRIPOS>ATOM
      1 C10        -43.1390    32.3330    23.2140 ca         1 UZ2      -0.165500
      2 C13        -44.5020    32.6480    23.3650 ca         1 UZ2       0.296000
      3 C15        -44.2460    34.0900    25.3450 c6         1 UZ2       0.189800
      4 C17        -43.7780    35.8330    27.0580 c6         1 UZ2      -0.119400
      5 C20        -41.8030    36.0860    24.9410 c6         1 UZ2       0.214300
      6 C22        -41.1140    37.6940    26.6890 ca         1 UZ2       0.401900
      7 C24        -40.6750    39.1790    28.3660 ca         1 UZ2       0.188900
      8 C26        -40.2360    39.8800    26.2550 ca         1 UZ2       0.401900
      9 C28        -39.6960    40.7660    24.0080 c3         1 UZ2       0.224100
     10 C02        -41.8520    25.5680    23.0930 c6         1 UZ2      -0.051000
     11 C03        -42.8430    24.5370    22.5350 c3         1 UZ2      -0.083100
     12 C04        -42.5970    26.6840    23.8490 c6         1 UZ2      -0.066400
     13 C05        -43.3780    27.6170    22.9310 c6         1 UZ2       0.167300
     14 C07        -43.2190    29.1790    21.0870 c3         1 UZ2       0.218100
     15 C08        -43.6720    30.3880    21.8630 ca         1 UZ2      -0.115300
     16 C09        -42.7420    31.2270    22.4840 ca         1 UZ2      -0.064500
     17 C11        -45.0160    30.7080    22.0000 ca         1 UZ2      -0.064500
     18 C12        -45.4350    31.8130    22.7370 ca         1 UZ2      -0.165500
     19 C16        -44.2260    35.5970    25.6020 c6         1 UZ2       0.141400
     20 C18        -42.2770    35.6020    27.2520 c6         1 UZ2       0.214300
     21 C19        -43.2800    36.3080    24.6110 c6         1 UZ2      -0.119400
     22 C29        -40.6820    38.6510    25.7610 ca         1 UZ2      -0.364000
     23 C32        -46.2970    34.1050    24.1470 c6         1 UZ2       0.113800
     24 C33        -46.5930    35.4430    24.7960 c          1 UZ2       0.559000
     25 C35        -41.8780    27.1730    21.1000 c6         1 UZ2       0.167300
     26 C36        -41.0480    26.2250    21.9560 c6         1 UZ2      -0.066400
     27 N06        -42.5060    28.2090    21.9180 n3         1 UZ2      -0.722600
     28 N14        -44.8900    33.7870    24.0800 nh         1 UZ2      -0.792400
     29 N21        -41.5190    36.4400    26.3260 nh         1 UZ2      -0.769300
     30 N23        -41.1170    37.9780    28.0160 nb         1 UZ2      -0.294000
     31 N25        -40.2290    40.1510    27.5870 nb         1 UZ2      -0.288000
     32 N27        -39.7960    40.8680    25.4470 nu         1 UZ2      -0.941100
     33 N30        -45.6050    36.1200    25.4140 n          1 UZ2      -0.406800
     34 H1         -42.3840    32.9700    23.6520 ha         1 UZ2       0.113500
     35 H2         -44.7800    33.5930    26.1680 h1         1 UZ2       0.052700
     36 H3         -43.2320    33.7110    25.3460 h1         1 UZ2       0.052700
     37 H4         -43.9860    36.8610    27.3540 hc         1 UZ2       0.065700
     38 H5         -44.3500    35.1820    27.7230 hc         1 UZ2       0.065700
     39 H6         -41.5300    35.0360    24.8130 h1         1 UZ2       0.064700
     40 H7         -41.1740    36.6500    24.2600 h1         1 UZ2       0.064700
     41 H8         -40.6810    39.3910    29.4330 h5         1 UZ2       0.041100
     42 H9         -39.3090    41.7070    23.6230 h1         1 UZ2       0.039033
     43 H10        -39.0180    39.9620    23.7050 h1         1 UZ2       0.039033
     44 H11        -40.6720    40.5800    23.5510 h1         1 UZ2       0.039033
     45 H12        -41.4420    24.3980    24.8790 hc         1 UZ2       0.033033
     46 H13        -40.3370    24.0720    23.5380 hc         1 UZ2       0.033033
     47 H14        -40.1730    25.5640    24.4760 hc         1 UZ2       0.033033
     48 H15        -43.4010    24.0680    23.3490 hc         1 UZ2       0.033033
     49 H16        -43.5650    24.9820    21.8500 hc         1 UZ2       0.033033
     50 H17        -42.3090    23.7510    21.9930 hc         1 UZ2       0.033033
     51 H18        -41.8650    27.2800    24.4040 hc         1 UZ2       0.045950
     52 H19        -43.2780    26.2440    24.5830 hc         1 UZ2       0.045950
     53 H20        -43.8200    28.4220    23.5190 h1         1 UZ2       0.030950
     54 H21        -44.2140    27.0760    22.4540 h1         1 UZ2       0.030950
     55 H22        -44.0910    28.7170    20.5940 h1         1 UZ2       0.036200
     56 H23        -42.5330    29.4880    20.2930 h1         1 UZ2       0.036200
     57 H24        -41.6850    31.0080    22.3900 ha         1 UZ2       0.116000
     58 H25        -45.7640    30.0730    21.5370 ha         1 UZ2       0.116000
     59 H26        -46.4940    32.0040    22.8290 ha         1 UZ2       0.113500
     60 H27        -42.0040    34.5630    27.0580 h1         1 UZ2       0.064700
     61 H28        -41.9920    35.8390    28.2700 h1         1 UZ2       0.064700
     62 H29        -43.4790    37.3810    24.6280 hc         1 UZ2       0.065700
     63 H30        -43.4960    35.9500    23.6040 hc         1 UZ2       0.065700
     64 H31        -40.6880    38.4650    24.7010 ha         1 UZ2       0.126000
     65 H32        -45.0270    38.0800    25.8840 h1         1 UZ2       0.047033
     66 H33        -46.6750    37.9040    25.2620 h1         1 UZ2       0.047033
     67 H34        -46.3050    37.4320    26.9260 h1         1 UZ2       0.047033
     68 H35        -46.7220    34.1590    23.1450 h1         1 UZ2       0.070700
     69 H36        -46.8730    33.3500    24.7060 h1         1 UZ2       0.070700
     70 H37        -42.6390    26.6100    20.5310 h1         1 UZ2       0.030950
     71 H38        -41.2360    27.6630    20.3650 h1         1 UZ2       0.030950
     72 H39        -40.6060    25.4530    21.3200 hc         1 UZ2       0.045950
     73 H40        -40.2220    26.7930    22.3960 hc         1 UZ2       0.045950
     74 H42        -39.4740    41.7060    25.9020 hn         1 UZ2       0.508000
     75 O34        -47.7500    35.8720    24.7230 o          1 UZ2      -0.576000
     76 C01        -40.8940    24.8590    24.0530 c3         1 UZ2      -0.083100
     77 C31        -45.9200    37.4610    25.9050 c3         1 UZ2       0.083300
@<TRIPOS>BOND
     1     1     2 ar  
     2     1    16 ar  
     3     1    34 1   
     4     2    18 ar  
     5     2    28 1   
     6     3    19 1   
     7     3    28 1   
     8     3    35 1   
     9     3    36 1   
    10     4    19 1   
    11     4    20 1   
    12     4    37 1   
    13     4    38 1   
    14     5    21 1   
    15     5    29 1   
    16     5    39 1   
    17     5    40 1   
    18     6    22 ar  
    19     6    29 1   
    20     6    30 ar  
    21     7    30 ar  
    22     7    31 ar  
    23     7    41 1   
    24     8    22 ar  
    25     8    31 ar  
    26     8    32 1   
    27     9    32 1   
    28     9    42 1   
    29     9    43 1   
    30     9    44 1   
    31    10    11 1   
    32    10    12 1   
    33    10    26 1   
    34    10    76 1   
    35    11    48 1   
    36    11    49 1   
    37    11    50 1   
    38    12    13 1   
    39    12    51 1   
    40    12    52 1   
    41    13    27 1   
    42    13    53 1   
    43    13    54 1   
    44    14    15 1   
    45    14    27 1   
    46    14    55 1   
    47    14    56 1   
    48    15    16 ar  
    49    15    17 ar  
    50    16    57 1   
    51    17    18 ar  
    52    17    58 1   
    53    18    59 1   
    54    19    21 1   
    55    19    33 1   
    56    20    29 1   
    57    20    60 1   
    58    20    61 1   
    59    21    62 1   
    60    21    63 1   
    61    22    64 1   
    62    23    24 1   
    63    23    28 1   
    64    23    68 1   
    65    23    69 1   
    66    24    33 1   
    67    24    75 2   
    68    25    26 1   
    69    25    27 1   
    70    25    70 1   
    71    25    71 1   
    72    26    72 1   
    73    26    73 1   
    74    32    74 1   
    75    33    77 1   
    76    45    76 1   
    77    46    76 1   
    78    47    76 1   
    79    65    77 1   
    80    66    77 1   
    81    67    77 1   
@<TRIPOS>SUBSTRUCTURE
     1 UZ2         1 TEMP              0 ****  ****    0 ROOT
