@<TRIPOS>MOLECULE
UZ2
   77    81     1     0     0
SMALL
No Charge or Current Charge


@<TRIPOS>ATOM
      1 C10        -43.4790    32.6420    23.1220 ca         1 UZ2      -0.165500
      2 C13        -44.8750    32.7240    23.2930 ca         1 UZ2       0.296000
      3 C15        -44.9170    34.2730    25.3000 c6         1 UZ2       0.189800
      4 C17        -44.5890    36.1690    26.9820 c6         1 UZ2      -0.119400
      5 C20        -42.6950    36.4250    24.7460 c6         1 UZ2       0.214300
      6 C22        -40.9730    37.1280    26.4340 ca         1 UZ2       0.401900
      7 C24        -39.0590    36.9470    27.6860 ca         1 UZ2       0.188900
      8 C26        -39.0810    38.5380    26.0530 ca         1 UZ2       0.401900
      9 C28        -38.8860    40.3860    24.2900 c3         1 UZ2       0.224100
     10 C02        -41.3040    25.9540    23.3380 c6         1 UZ2      -0.051000
     11 C03        -42.2300    24.8080    22.8140 c3         1 UZ2      -0.083100
     12 C04        -42.1270    27.0420    24.0890 c6         1 UZ2      -0.066400
     13 C05        -43.0320    27.8680    23.1380 c6         1 UZ2       0.167300
     14 C07        -43.0680    29.3670    21.1650 c3         1 UZ2       0.218100
     15 C08        -43.7040    30.5410    21.9050 ca         1 UZ2      -0.115300
     16 C09        -42.8970    31.5610    22.4370 ca         1 UZ2      -0.064500
     17 C11        -45.0990    30.6170    22.0630 ca         1 UZ2      -0.064500
     18 C12        -45.6780    31.7000    22.7480 ca         1 UZ2      -0.165500
     19 C16        -45.0910    35.8230    25.5390 c6         1 UZ2       0.141400
     20 C18        -43.0710    35.9320    27.1710 c6         1 UZ2       0.214300
     21 C19        -44.2130    36.6420    24.5430 c6         1 UZ2      -0.119400
     22 C29        -40.3830    38.1700    25.7090 ca         1 UZ2      -0.364000
     23 C32        -46.8840    34.2120    23.7860 c6         1 UZ2       0.113800
     24 C33        -47.4060    35.5000    24.4930 c          1 UZ2       0.559000
     25 C35        -41.4890    27.4800    21.2590 c6         1 UZ2       0.167300
     26 C36        -40.5460    26.6460    22.1650 c6         1 UZ2      -0.066400
     27 N06        -42.2460    28.4980    22.0380 n3         1 UZ2      -0.722600
     28 N14        -45.4480    33.8240    23.9840 nh         1 UZ2      -0.792400
     29 N21        -42.2880    36.6940    26.1550 nh         1 UZ2      -0.769300
     30 N23        -40.3100    36.5160    27.4350 nb         1 UZ2      -0.294000
     31 N25        -38.4070    37.9330    27.0390 nb         1 UZ2      -0.288000
     32 N27        -38.4020    39.5540    25.4050 nu         1 UZ2      -0.941100
     33 N30        -46.5300    36.2330    25.3410 n          1 UZ2      -0.406800
     34 H1         -42.8360    33.4220    23.5100 ha         1 UZ2       0.113500
     35 H2         -45.4500    33.7360    26.1000 h1         1 UZ2       0.052700
     36 H3         -43.8610    33.9920    25.4020 h1         1 UZ2       0.052700
     37 H4         -44.7700    37.2230    27.2240 hc         1 UZ2       0.065700
     38 H5         -45.1470    35.5850    27.7260 hc         1 UZ2       0.065700
     39 H6         -42.4220    35.3980    24.4700 h1         1 UZ2       0.064700
     40 H7         -42.1610    37.0830    24.0460 h1         1 UZ2       0.064700
     41 H8         -38.5210    36.4510    28.4920 h5         1 UZ2       0.041100
     42 H9         -38.1170    41.1090    23.9870 h1         1 UZ2       0.039033
     43 H10        -39.1340    39.7600    23.4220 h1         1 UZ2       0.039033
     44 H11        -39.7860    40.9430    24.5870 h1         1 UZ2       0.039033
     45 H12        -40.7890    24.8100    25.1570 hc         1 UZ2       0.033033
     46 H13        -39.6790    24.5310    23.8060 hc         1 UZ2       0.033033
     47 H14        -39.5900    26.0360    24.7280 hc         1 UZ2       0.033033
     48 H15        -42.7580    24.3150    23.6390 hc         1 UZ2       0.033033
     49 H16        -42.9920    25.1700    22.1150 hc         1 UZ2       0.033033
     50 H17        -41.6510    24.0370    22.2890 hc         1 UZ2       0.033033
     51 H18        -41.4450    27.7310    24.6070 hc         1 UZ2       0.045950
     52 H19        -42.7440    26.5810    24.8720 hc         1 UZ2       0.045950
     53 H20        -43.5390    28.6390    23.7370 h1         1 UZ2       0.030950
     54 H21        -43.8180    27.2210    22.7240 h1         1 UZ2       0.030950
     55 H22        -43.8570    28.7740    20.6810 h1         1 UZ2       0.036200
     56 H23        -42.4440    29.7790    20.3600 h1         1 UZ2       0.036200
     57 H24        -41.8160    31.5150    22.3200 ha         1 UZ2       0.116000
     58 H25        -45.7380    29.8340    21.6580 ha         1 UZ2       0.116000
     59 H26        -46.7570    31.7240    22.8590 ha         1 UZ2       0.113500
     60 H27        -42.8380    34.8580    27.1140 h1         1 UZ2       0.064700
     61 H28        -42.8070    36.2620    28.1870 h1         1 UZ2       0.064700
     62 H29        -44.4230    37.7130    24.6550 hc         1 UZ2       0.065700
     63 H30        -44.4800    36.3910    23.5080 hc         1 UZ2       0.065700
     64 H31        -40.9240    38.6810    24.9230 ha         1 UZ2       0.126000
     65 H32        -46.2480    38.2610    25.9580 h1         1 UZ2       0.047033
     66 H33        -47.8930    37.8940    25.4320 h1         1 UZ2       0.047033
     67 H34        -47.3200    37.2900    27.0100 h1         1 UZ2       0.047033
     68 H35        -47.0850    34.3570    22.7150 h1         1 UZ2       0.070700
     69 H36        -47.5400    33.4060    24.1450 h1         1 UZ2       0.070700
     70 H37        -42.1830    26.8080    20.7320 h1         1 UZ2       0.030950
     71 H38        -40.8800    27.9730    20.4870 h1         1 UZ2       0.030950
     72 H39        -40.0210    25.8970    21.5570 hc         1 UZ2       0.045950
     73 H40        -39.7700    27.3110    22.5670 hc         1 UZ2       0.045950
     74 H42        -37.4560    39.7300    25.7510 hn         1 UZ2       0.508000
     75 O34        -48.5680    35.8560    24.3200 o          1 UZ2      -0.576000
     76 C01        -40.2830    25.2940    24.3130 c3         1 UZ2      -0.083100
     77 C31        -47.0270    37.4900    25.9710 c3         1 UZ2       0.083300
@<TRIPOS>BOND
     1     1     2 ar  
     2     1    16 ar  
     3     1    34 1   
     4     2    18 ar  
     5     2    28 1   
     6     3    19 1   
     7     3    28 1   
     8     3    35 1   
     9     3    36 1   
    10     4    19 1   
    11     4    20 1   
    12     4    37 1   
    13     4    38 1   
    14     5    21 1   
    15     5    29 1   
    16     5    39 1   
    17     5    40 1   
    18     6    22 ar  
    19     6    29 1   
    20     6    30 ar  
    21     7    30 ar  
    22     7    31 ar  
    23     7    41 1   
    24     8    22 ar  
    25     8    31 ar  
    26     8    32 1   
    27     9    32 1   
    28     9    42 1   
    29     9    43 1   
    30     9    44 1   
    31    10    11 1   
    32    10    12 1   
    33    10    26 1   
    34    10    76 1   
    35    11    48 1   
    36    11    49 1   
    37    11    50 1   
    38    12    13 1   
    39    12    51 1   
    40    12    52 1   
    41    13    27 1   
    42    13    53 1   
    43    13    54 1   
    44    14    15 1   
    45    14    27 1   
    46    14    55 1   
    47    14    56 1   
    48    15    16 ar  
    49    15    17 ar  
    50    16    57 1   
    51    17    18 ar  
    52    17    58 1   
    53    18    59 1   
    54    19    21 1   
    55    19    33 1   
    56    20    29 1   
    57    20    60 1   
    58    20    61 1   
    59    21    62 1   
    60    21    63 1   
    61    22    64 1   
    62    23    24 1   
    63    23    28 1   
    64    23    68 1   
    65    23    69 1   
    66    24    33 1   
    67    24    75 2   
    68    25    26 1   
    69    25    27 1   
    70    25    70 1   
    71    25    71 1   
    72    26    72 1   
    73    26    73 1   
    74    32    74 1   
    75    33    77 1   
    76    45    76 1   
    77    46    76 1   
    78    47    76 1   
    79    65    77 1   
    80    66    77 1   
    81    67    77 1   
@<TRIPOS>SUBSTRUCTURE
     1 UZ2         1 TEMP              0 ****  ****    0 ROOT
