@<TRIPOS>MOLECULE
UZ3
   36    37     1     0     0
SMALL
abcg2


@<TRIPOS>ATOM
      1 CAJ        -49.8230    23.2360    12.3560 ca         1 UZ3      -0.156000
      2 CAR        -50.0140    21.9970    11.7670 ca         1 UZ3       0.156000
      3 CLAE       -51.4800    21.1430    12.1090 cl         1 UZ3      -0.193000
      4 CAI        -49.0920    21.4100    10.9180 ca         1 UZ3      -0.132000
      5 CAS        -47.9340    22.1280    10.6630 ca         1 UZ3       0.156000
      6 CLAF       -46.7460    21.4490     9.6050 cl         1 UZ3      -0.193000
      7 CAK        -47.6970    23.3670    11.2220 ca         1 UZ3      -0.156000
      8 CAT        -48.6470    23.9360    12.0790 ca         1 UZ3       0.022000
      9 NAM        -48.3320    25.1860    12.5910 ns         1 UZ3      -0.159000
     10 CAQ        -49.0780    25.9800    13.4310 c          1 UZ3       0.679100
     11 OAD        -50.1550    25.6400    13.8860 o          1 UZ3      -0.613100
     12 NAN        -48.4550    27.1710    13.6750 ns         1 UZ3      -0.179000
     13 CAV        -48.8840    28.2420    14.4410 ca         1 UZ3       0.105000
     14 CAL        -50.1120    28.2400    15.1100 ca         1 UZ3      -0.263000
     15 CAU        -50.5180    29.3490    15.8410 ca         1 UZ3       0.207100
     16 OAO        -51.6750    29.4130    16.5090 os         1 UZ3      -0.338100
     17 CAA        -52.5380    28.2900    16.5100 c3         1 UZ3       0.144900
     18 CAG        -49.7120    30.4890    15.9000 ca         1 UZ3      -0.193000
     19 CAH        -48.4980    30.4770    15.2580 ca         1 UZ3      -0.019000
     20 CAW        -48.0330    29.3690    14.5410 ca         1 UZ3      -0.271600
     21 CAP        -46.6930    29.3940    13.8980 c          1 UZ3       0.641700
     22 OAC        -46.3650    28.5760    13.0310 o          1 UZ3      -0.662100
     23 NAB        -45.8330    30.3450    14.2880 nt         1 UZ3      -0.586000
     24 H1         -50.5760    23.6420    13.0110 ha         1 UZ3       0.149500
     25 H2         -49.2670    20.4410    10.4750 ha         1 UZ3       0.147000
     26 H3         -46.7810    23.8970    10.9960 ha         1 UZ3       0.149500
     27 H4         -47.4420    25.5480    12.2840 hn         1 UZ3       0.162000
     28 H5         -47.5720    27.3850    13.2010 hn         1 UZ3       0.206000
     29 H6         -50.7410    27.3690    15.0440 ha         1 UZ3       0.161000
     30 H7         -53.3920    28.5610    17.1240 h1         1 UZ3       0.049033
     31 H8         -52.8890    28.0450    15.5050 h1         1 UZ3       0.049033
     32 H9         -52.0560    27.4100    16.9420 h1         1 UZ3       0.049033
     33 H10        -50.0440    31.3650    16.4420 ha         1 UZ3       0.134000
     34 H11        -47.9070    31.3810    15.3040 ha         1 UZ3       0.108000
     35 H12        -44.9130    30.3590    13.8780 hn         1 UZ3       0.318500
     36 H13        -45.9720    30.9210    15.0990 hn         1 UZ3       0.318500
@<TRIPOS>BOND
     1     1     2 ar  
     2     1     8 ar  
     3     1    24 1   
     4     2     3 1   
     5     2     4 ar  
     6     4     5 ar  
     7     4    25 1   
     8     5     6 1   
     9     5     7 ar  
    10     7     8 ar  
    11     7    26 1   
    12     8     9 1   
    13     9    10 1   
    14     9    27 1   
    15    10    11 2   
    16    10    12 1   
    17    12    13 1   
    18    12    28 1   
    19    13    14 ar  
    20    13    20 ar  
    21    14    15 ar  
    22    14    29 1   
    23    15    16 1   
    24    15    18 ar  
    25    16    17 1   
    26    17    30 1   
    27    17    31 1   
    28    17    32 1   
    29    18    19 ar  
    30    18    33 1   
    31    19    20 ar  
    32    19    34 1   
    33    20    21 1   
    34    21    22 2   
    35    21    23 1   
    36    23    35 1   
    37    23    36 1   
@<TRIPOS>SUBSTRUCTURE
     1 UZ3         1 TEMP              0 ****  ****    0 ROOT
