@<TRIPOS>MOLECULE
UZ3
   36    37     1     0     0
SMALL
No Charge or Current Charge


@<TRIPOS>ATOM
      1 CAJ        -49.7540    23.0380    12.3430 ca         1 UZ3      -0.156000
      2 CAR        -49.8750    21.7580    11.7780 ca         1 UZ3       0.156000
      3 ClAE       -51.2390    20.7370    12.2130 cl         1 UZ3      -0.193000
      4 CAI        -48.9180    21.2890    10.8690 ca         1 UZ3      -0.132000
      5 CAS        -47.8340    22.1070    10.5230 ca         1 UZ3       0.156000
      6 ClAF       -46.6290    21.5280     9.3810 cl         1 UZ3      -0.193000
      7 CAK        -47.7080    23.3880    11.0840 ca         1 UZ3      -0.156000
      8 CAT        -48.6620    23.8680    12.0010 ca         1 UZ3       0.022000
      9 NAM        -48.4700    25.1760    12.5270 ns         1 UZ3      -0.159000
     10 CAQ        -49.1660    25.9140    13.4740 c          1 UZ3       0.679100
     11 OAD        -50.1480    25.5020    14.0810 o          1 UZ3      -0.613100
     12 NAN        -48.5990    27.1630    13.6550 ns         1 UZ3      -0.179000
     13 CAV        -48.9330    28.2780    14.4720 ca         1 UZ3       0.105000
     14 CAL        -50.1800    28.3540    15.1320 ca         1 UZ3      -0.263000
     15 CAU        -50.5050    29.4560    15.9430 ca         1 UZ3       0.207100
     16 OAO        -51.7100    29.5670    16.6070 os         1 UZ3      -0.338100
     17 CAA        -52.7300    28.5550    16.5300 c3         1 UZ3       0.144900
     18 CAG        -49.5840    30.4930    16.0910 ca         1 UZ3      -0.193000
     19 CAH        -48.3470    30.4460    15.4360 ca         1 UZ3      -0.019000
     20 CAW        -47.9980    29.3460    14.6140 ca         1 UZ3      -0.271600
     21 CAP        -46.6480    29.3360    13.9120 c          1 UZ3       0.641700
     22 OAC        -46.3170    28.5020    13.0860 o          1 UZ3      -0.662100
     23 NAB        -45.7690    30.3130    14.2050 nt         1 UZ3      -0.586000
     24 H1         -50.5200    23.3620    13.0380 ha         1 UZ3       0.149500
     25 H2         -49.0150    20.2980    10.4340 ha         1 UZ3       0.147000
     26 H3         -46.8600    24.0070    10.8020 ha         1 UZ3       0.149500
     27 H4         -47.6740    25.6580    12.1310 hn         1 UZ3       0.162000
     28 H5         -47.7650    27.3200    13.1030 hn         1 UZ3       0.206000
     29 H6         -50.9060    27.5620    15.0070 ha         1 UZ3       0.161000
     30 H7         -53.5980    28.8440    17.1350 h1         1 UZ3       0.049033
     31 H8         -53.0690    28.4200    15.4950 h1         1 UZ3       0.049033
     32 H9         -52.3580    27.5950    16.9080 h1         1 UZ3       0.049033
     33 H10        -49.8340    31.3470    16.7160 ha         1 UZ3       0.134000
     34 H11        -47.6730    31.2880    15.5760 ha         1 UZ3       0.108000
     35 H12        -44.8730    30.3190    13.7430 hn         1 UZ3       0.318500
     36 H13        -45.9980    31.0170    14.8880 hn         1 UZ3       0.318500
@<TRIPOS>BOND
     1     1     2 ar  
     2     1     8 ar  
     3     1    24 1   
     4     2     3 1   
     5     2     4 ar  
     6     4     5 ar  
     7     4    25 1   
     8     5     6 1   
     9     5     7 ar  
    10     7     8 ar  
    11     7    26 1   
    12     8     9 1   
    13     9    10 1   
    14     9    27 1   
    15    10    11 2   
    16    10    12 1   
    17    12    13 1   
    18    12    28 1   
    19    13    14 ar  
    20    13    20 ar  
    21    14    15 ar  
    22    14    29 1   
    23    15    16 1   
    24    15    18 ar  
    25    16    17 1   
    26    17    30 1   
    27    17    31 1   
    28    17    32 1   
    29    18    19 ar  
    30    18    33 1   
    31    19    20 ar  
    32    19    34 1   
    33    20    21 1   
    34    21    22 2   
    35    21    23 1   
    36    23    35 1   
    37    23    36 1   
@<TRIPOS>SUBSTRUCTURE
     1 UZ3         1 TEMP              0 ****  ****    0 ROOT
