@<TRIPOS>MOLECULE
UZ4
   27    27     1     0     0
SMALL
No Charge or Current Charge


@<TRIPOS>ATOM
      1 N19          9.9700    12.2150    27.5500 n8         1 UZ4      -1.017200
      2 C20          8.8300    11.4980    28.1600 c3         1 UZ4       0.150500
      3 C21          7.6940    11.2680    27.1240 c3         1 UZ4      -0.056400
      4 C22          7.0680    12.5580    26.5210 c5         1 UZ4      -0.135700
      5 C23          6.3690    13.4970    27.5450 c5         1 UZ4      -0.089400
      6 C24          5.4390    14.3260    26.6170 c5         1 UZ4       0.098000
      7 N25          5.0540    13.3070    25.6450 ns         1 UZ4      -0.522900
      8 C26          5.9550    12.2870    25.5010 c          1 UZ4       0.561000
      9 O27          5.7290    11.2860    24.8400 o          1 UZ4      -0.569000
     10 C28          9.3510    10.1800    28.8150 c3         1 UZ4      -0.013700
     11 O29         10.5720    10.4390    29.5780 oh         1 UZ4      -0.721000
     12 C31          8.2310     9.5150    29.6930 c          1 UZ4       0.693000
     13 O32          7.6520     8.5310    29.2540 o          1 UZ4      -0.716500
     14 H1          10.7690    12.0030    28.1610 hn         1 UZ4       0.387500
     15 H2          10.2240    11.7370    26.6800 hn         1 UZ4       0.387500
     16 H4           8.4370    12.1290    28.9710 h1         1 UZ4       0.053700
     17 H5           6.8950    10.6860    27.5990 hc         1 UZ4       0.069700
     18 H6           8.0800    10.6360    26.3150 hc         1 UZ4       0.069700
     19 H7           7.8410    13.1350    26.0000 hc         1 UZ4       0.079700
     20 H8           5.7800    12.9260    28.2720 hc         1 UZ4       0.063700
     21 H9           7.0710    14.1230    28.1070 hc         1 UZ4       0.063700
     22 H10          5.9820    15.1490    26.1350 h1         1 UZ4       0.028200
     23 H11          4.5810    14.7430    27.1600 h1         1 UZ4       0.028200
     24 H12          4.1890    13.2800    25.1180 hn         1 UZ4       0.308500
     25 H13          9.5830     9.4750    28.0050 h1         1 UZ4       0.036700
     26 H14         10.2800    10.5890    30.5100 ho         1 UZ4       0.480000
     27 OXT          8.0950     9.9180    30.8410 o          1 UZ4      -0.716500
@<TRIPOS>BOND
     1     1     2 1   
     2     1    14 1   
     3     1    15 1   
     4     2     3 1   
     5     2    10 1   
     6     2    16 1   
     7     3     4 1   
     8     3    17 1   
     9     3    18 1   
    10     4     5 1   
    11     4     8 1   
    12     4    19 1   
    13     5     6 1   
    14     5    20 1   
    15     5    21 1   
    16     6     7 1   
    17     6    22 1   
    18     6    23 1   
    19     7     8 1   
    20     7    24 1   
    21     8     9 2   
    22    10    11 1   
    23    10    12 1   
    24    10    25 1   
    25    11    26 1   
    26    12    13 1   
    27    12    27 1   
@<TRIPOS>SUBSTRUCTURE
     1 UZ4         1 TEMP              0 ****  ****    0 ROOT
