@<TRIPOS>MOLECULE
UZ4
   27    27     1     0     0
SMALL
bcc


@<TRIPOS>ATOM
      1 N19          9.8800    12.2040    27.4450 n8         1 UZ4      -0.906800
      2 C20          8.8050    11.4940    28.1260 c3         1 UZ4       0.150500
      3 C21          7.6650    11.2550    27.1410 c3         1 UZ4      -0.056400
      4 C22          7.1200    12.5380    26.5320 c5         1 UZ4      -0.135700
      5 C23          6.4580    13.4960    27.5230 c5         1 UZ4      -0.089400
      6 C24          5.3850    14.2070    26.6960 c5         1 UZ4       0.098000
      7 N25          5.0800    13.2250    25.6790 ns         1 UZ4      -0.589900
      8 C26          6.0290    12.2880    25.5050 c          1 UZ4       0.703500
      9 O27          6.0170    11.4080    24.6590 o          1 UZ4      -0.644500
     10 C28          9.2950    10.1930    28.8030 c3         1 UZ4      -0.036900
     11 O29         10.4610    10.4610    29.5470 oh         1 UZ4      -0.658800
     12 C31          8.2450     9.5810    29.7640 c          1 UZ4       0.903600
     13 O32          7.2630     8.9960    29.2830 o          1 UZ4      -0.821800
     14 H1          10.6590    12.3080    28.0840 hn         1 UZ4       0.332300
     15 H2          10.2260    11.6290    26.6830 hn         1 UZ4       0.332300
     16 H4           8.4460    12.1530    28.9280 h1         1 UZ4       0.053700
     17 H5           6.8580    10.7230    27.6460 hc         1 UZ4       0.069700
     18 H6           8.0190    10.5940    26.3420 hc         1 UZ4       0.069700
     19 H7           7.9290    13.0580    26.0060 hc         1 UZ4       0.079700
     20 H8           5.9860    12.9240    28.3270 hc         1 UZ4       0.063700
     21 H9           7.1560    14.1950    27.9800 hc         1 UZ4       0.063700
     22 H10          5.7640    15.1330    26.2510 h1         1 UZ4       0.028200
     23 H11          4.4990    14.4570    27.2800 h1         1 UZ4       0.028200
     24 H12          4.3120    13.3310    25.0340 hn         1 UZ4       0.308500
     25 H13          9.5230     9.4640    28.0110 h1         1 UZ4       0.036700
     26 H14         10.1310    10.3700    30.4620 ho         1 UZ4       0.441000
     27 OXT          8.5070     9.7510    30.9790 o          1 UZ4      -0.821800
@<TRIPOS>BOND
     1     1     2 1   
     2     1    14 1   
     3     1    15 1   
     4     2     3 1   
     5     2    10 1   
     6     2    16 1   
     7     3     4 1   
     8     3    17 1   
     9     3    18 1   
    10     4     5 1   
    11     4     8 1   
    12     4    19 1   
    13     5     6 1   
    14     5    20 1   
    15     5    21 1   
    16     6     7 1   
    17     6    22 1   
    18     6    23 1   
    19     7     8 1   
    20     7    24 1   
    21     8     9 2   
    22    10    11 1   
    23    10    12 1   
    24    10    25 1   
    25    11    26 1   
    26    12    13 1   
    27    12    27 1   
@<TRIPOS>SUBSTRUCTURE
     1 UZ4         1 TEMP              0 ****  ****    0 ROOT
