@<TRIPOS>MOLECULE
UZ5
   74    78     1     0     0
SMALL
bcc


@<TRIPOS>ATOM
      1 C13        -43.9400    31.8210    22.6780 ca         1 UZ5       0.082900
      2 C15        -45.2110    32.1880    23.1420 ca         1 UZ5       0.139600
      3 C17        -44.6690    33.5310    25.1200 c6         1 UZ5       0.189800
      4 C20        -43.5310    36.6490    27.1000 c6         1 UZ5       0.217800
      5 C21        -43.5140    35.6520    24.3880 c6         1 UZ5      -0.097900
      6 C22        -43.2070    37.1050    24.7150 c6         1 UZ5       0.217800
      7 C24        -41.8310    38.2470    26.3930 ca         1 UZ5       0.739200
      8 C26        -40.6160    39.2890    28.0010 ca         1 UZ5       0.721900
      9 C28        -40.3830    40.0840    25.9070 ca         1 UZ5       0.733200
     10 C02        -42.9600    24.9920    22.4480 c6         1 UZ5      -0.047000
     11 C03        -44.0150    23.9980    21.9570 c3         1 UZ5      -0.083600
     12 C04        -42.2710    25.6810    21.2650 c6         1 UZ5      -0.067400
     13 C05        -43.1810    26.6490    20.5260 c6         1 UZ5       0.167800
     14 C07        -44.4970    28.6400    20.7090 c3         1 UZ5       0.219100
     15 C08        -44.7700    29.8590    21.5480 ca         1 UZ5      -0.117300
     16 C09        -46.0240    30.2310    21.9860 ca         1 UZ5       0.150900
     17 C11        -46.2610    31.3510    22.7650 ca         1 UZ5      -0.212000
     18 C12        -43.7180    30.6910    21.9320 ca         1 UZ5      -0.102000
     19 C18        -44.4760    35.0150    25.3940 c6         1 UZ5       0.138400
     20 C19        -43.8750    35.2010    26.7860 c6         1 UZ5      -0.097900
     21 C30        -40.0700    41.0670    23.6740 c3         1 UZ5       0.222100
     22 C31        -41.3000    39.1330    25.4500 ca         1 UZ5      -0.518600
     23 C33        -46.7560    33.8320    24.0040 c6         1 UZ5       0.101800
     24 C34        -46.8610    35.1920    24.6630 c          1 UZ5       0.708500
     25 C36        -44.4650    27.0490    22.5120 c6         1 UZ5       0.167800
     26 C37        -43.6000    26.0850    23.3110 c6         1 UZ5      -0.067400
     27 F10        -47.0870    29.4710    21.6660 f          1 UZ5      -0.141900
     28 F14        -42.8910    32.6160    22.9570 f          1 UZ5      -0.141900
     29 N06        -43.7110    27.6560    21.4290 n3         1 UZ5      -0.719600
     30 N16        -45.4000    33.3550    23.8770 nh         1 UZ5      -0.639000
     31 N23        -42.6990    37.2480    26.0670 nh         1 UZ5      -0.778300
     32 N25        -41.4840    38.3480    27.6890 nb         1 UZ5      -0.824000
     33 N27        -40.0320    40.1610    27.2060 nb         1 UZ5      -0.818000
     34 N29        -39.8080    40.9760    25.0840 nu         1 UZ5      -0.881900
     35 N32        -45.7880    35.6510    25.3240 ns         1 UZ5      -0.569900
     36 H1         -45.2170    33.0720    25.9570 h1         1 UZ5       0.058700
     37 H2         -43.6970    33.0500    25.0750 h1         1 UZ5       0.058700
     38 H3         -43.0050    36.6930    28.0480 h1         1 UZ5       0.053700
     39 H4         -44.4470    37.2420    27.2300 h1         1 UZ5       0.053700
     40 H5         -43.9270    35.5950    23.3800 hc         1 UZ5       0.066450
     41 H6         -42.5780    35.0880    24.3930 hc         1 UZ5       0.066450
     42 H7         -42.4590    37.4450    24.0030 h1         1 UZ5       0.053700
     43 H8         -44.0940    37.7350    24.5670 h1         1 UZ5       0.053700
     44 H9         -40.3460    39.3520    29.0520 h5         1 UZ5       0.040100
     45 H10        -41.1470    24.9010    23.6500 hc         1 UZ5       0.033200
     46 H11        -42.3800    23.7320    24.1240 hc         1 UZ5       0.033200
     47 H12        -41.4290    23.4660    22.6630 hc         1 UZ5       0.033200
     48 H13        -44.5100    23.5120    22.8000 hc         1 UZ5       0.033200
     49 H14        -44.7890    24.4670    21.3490 hc         1 UZ5       0.033200
     50 H15        -43.5540    23.2180    21.3480 hc         1 UZ5       0.033200
     51 H16        -41.8890    24.9340    20.5630 hc         1 UZ5       0.046700
     52 H17        -41.4030    26.2390    21.6340 hc         1 UZ5       0.046700
     53 H18        -42.6090    27.1530    19.7420 h1         1 UZ5       0.031950
     54 H19        -43.9900    26.1000    20.0130 h1         1 UZ5       0.031950
     55 H20        -43.9210    28.9510    19.8330 h1         1 UZ5       0.045700
     56 H21        -45.4360    28.2160    20.3230 h1         1 UZ5       0.045700
     57 H22        -47.2760    31.5510    23.0800 ha         1 UZ5       0.156000
     58 H23        -42.7090    30.4620    21.6100 ha         1 UZ5       0.163000
     59 H24        -44.5610    34.8280    27.5500 hc         1 UZ5       0.066450
     60 H25        -42.9660    34.5970    26.8410 hc         1 UZ5       0.066450
     61 H26        -39.4620    41.8660    23.2590 h1         1 UZ5       0.038033
     62 H27        -39.8140    40.1430    23.1500 h1         1 UZ5       0.038033
     63 H28        -41.1180    41.2960    23.4620 h1         1 UZ5       0.038033
     64 H29        -41.5860    39.1150    24.4110 ha         1 UZ5       0.145000
     65 H30        -47.2180    33.9140    23.0180 h1         1 UZ5       0.071200
     66 H31        -47.3890    33.1570    24.6020 h1         1 UZ5       0.071200
     67 H32        -44.8220    27.8370    23.1790 h1         1 UZ5       0.031950
     68 H33        -45.3640    26.5330    22.1320 h1         1 UZ5       0.031950
     69 H34        -42.8080    26.6600    23.8030 hc         1 UZ5       0.046700
     70 H35        -44.2030    25.6360    24.1050 hc         1 UZ5       0.046700
     71 H37        -39.1880    41.6450    25.5080 hn         1 UZ5       0.452800
     72 H38        -45.9040    36.5640    25.7410 hn         1 UZ5       0.319500
     73 O35        -47.9200    35.8020    24.6130 o          1 UZ5      -0.641500
     74 C01        -41.9210    24.2310    23.2680 c3         1 UZ5      -0.083600
@<TRIPOS>BOND
     1     1     2 ar  
     2     1    18 ar  
     3     1    28 1   
     4     2    17 ar  
     5     2    30 1   
     6     3    19 1   
     7     3    30 1   
     8     3    36 1   
     9     3    37 1   
    10     4    20 1   
    11     4    31 1   
    12     4    38 1   
    13     4    39 1   
    14     5     6 1   
    15     5    19 1   
    16     5    40 1   
    17     5    41 1   
    18     6    31 1   
    19     6    42 1   
    20     6    43 1   
    21     7    22 ar  
    22     7    31 1   
    23     7    32 ar  
    24     8    32 ar  
    25     8    33 ar  
    26     8    44 1   
    27     9    22 ar  
    28     9    33 ar  
    29     9    34 1   
    30    10    11 1   
    31    10    12 1   
    32    10    26 1   
    33    10    74 1   
    34    11    48 1   
    35    11    49 1   
    36    11    50 1   
    37    12    13 1   
    38    12    51 1   
    39    12    52 1   
    40    13    29 1   
    41    13    53 1   
    42    13    54 1   
    43    14    15 1   
    44    14    29 1   
    45    14    55 1   
    46    14    56 1   
    47    15    16 ar  
    48    15    18 ar  
    49    16    17 ar  
    50    16    27 1   
    51    17    57 1   
    52    18    58 1   
    53    19    20 1   
    54    19    35 1   
    55    20    59 1   
    56    20    60 1   
    57    21    34 1   
    58    21    61 1   
    59    21    62 1   
    60    21    63 1   
    61    22    64 1   
    62    23    24 1   
    63    23    30 1   
    64    23    65 1   
    65    23    66 1   
    66    24    35 1   
    67    24    73 2   
    68    25    26 1   
    69    25    29 1   
    70    25    67 1   
    71    25    68 1   
    72    26    69 1   
    73    26    70 1   
    74    34    71 1   
    75    35    72 1   
    76    45    74 1   
    77    46    74 1   
    78    47    74 1   
@<TRIPOS>SUBSTRUCTURE
     1 UZ5         1 TEMP              0 ****  ****    0 ROOT
