@<TRIPOS>MOLECULE
UZ5
   74    78     1     0     0
SMALL
No Charge or Current Charge


@<TRIPOS>ATOM
      1 C13        -43.9740    31.7730    22.5720 ca         1 UZ5       0.118000
      2 C15        -45.2740    32.1310    23.0210 ca         1 UZ5       0.278000
      3 C17        -44.8130    33.5230    25.0950 c6         1 UZ5       0.189800
      4 C20        -43.5480    36.6850    27.1010 c6         1 UZ5       0.217800
      5 C21        -43.4480    35.5640    24.3820 c6         1 UZ5      -0.097900
      6 C22        -43.0250    37.0220    24.6760 c6         1 UZ5       0.217800
      7 C24        -41.6080    38.1540    26.4360 ca         1 UZ5       0.410900
      8 C26        -40.0580    38.9130    27.9490 ca         1 UZ5       0.195900
      9 C28        -40.3380    40.1440    26.0530 ca         1 UZ5       0.404900
     10 C02        -42.8870    24.8920    22.5040 c6         1 UZ5      -0.047000
     11 C03        -44.0580    23.8860    22.2510 c3         1 UZ5      -0.083600
     12 C04        -42.3350    25.4610    21.1630 c6         1 UZ5      -0.067400
     13 C05        -43.3380    26.4160    20.4650 c6         1 UZ5       0.167800
     14 C07        -44.6180    28.5110    20.6650 c3         1 UZ5       0.219100
     15 C08        -44.8610    29.7760    21.4840 ca         1 UZ5      -0.117300
     16 C09        -46.1510    30.1320    21.9260 ca         1 UZ5       0.186000
     17 C11        -46.3540    31.2960    22.6830 ca         1 UZ5      -0.194000
     18 C12        -43.7750    30.6090    21.8130 ca         1 UZ5      -0.084000
     19 C18        -44.5330    35.0430    25.3650 c6         1 UZ5       0.138400
     20 C19        -43.9810    35.2280    26.8040 c6         1 UZ5      -0.097900
     21 C30        -40.4830    41.6800    24.0070 c3         1 UZ5       0.222100
     22 C31        -41.3100    39.2460    25.6080 ca         1 UZ5      -0.370000
     23 C33        -46.7610    34.1240    23.6360 c6         1 UZ5       0.101800
     24 C34        -46.7880    35.5320    24.3150 c          1 UZ5       0.566000
     25 C36        -44.3340    27.0310    22.6310 c6         1 UZ5       0.167800
     26 C37        -43.3560    26.0910    23.3810 c6         1 UZ5      -0.067400
     27 F10        -47.2160    29.3530    21.6330 f          1 UZ5      -0.177000
     28 F14        -42.9010    32.5550    22.8450 f          1 UZ5      -0.177000
     29 N06        -43.7440    27.5350    21.3580 n3         1 UZ5      -0.719600
     30 N16        -45.5070    33.3040    23.7920 nh         1 UZ5      -0.777400
     31 N23        -42.5710    37.1800    26.0870 nh         1 UZ5      -0.778300
     32 N25        -40.9790    37.9890    27.6160 nb         1 UZ5      -0.298000
     33 N27        -39.7040    39.9880    27.2210 nb         1 UZ5      -0.292000
     34 N29        -39.9670    41.2570    25.3210 nu         1 UZ5      -0.937100
     35 N32        -45.7700    35.8340    25.1940 ns         1 UZ5      -0.502900
     36 H1         -45.4420    33.1290    25.9080 h1         1 UZ5       0.058700
     37 H2         -43.8660    32.9680    25.1370 h1         1 UZ5       0.058700
     38 H3         -43.1220    36.7100    28.1140 h1         1 UZ5       0.053700
     39 H4         -44.4340    37.3370    27.1150 h1         1 UZ5       0.053700
     40 H5         -43.8070    35.4940    23.3460 hc         1 UZ5       0.066450
     41 H6         -42.5580    34.9220    24.4390 hc         1 UZ5       0.066450
     42 H7         -42.2130    37.2790    23.9800 h1         1 UZ5       0.053700
     43 H8         -43.8630    37.7030    24.4680 h1         1 UZ5       0.053700
     44 H9         -39.5500    38.7770    28.9020 h5         1 UZ5       0.040100
     45 H10        -40.9030    24.7380    23.4610 hc         1 UZ5       0.033200
     46 H11        -42.1260    23.6970    24.2000 hc         1 UZ5       0.033200
     47 H12        -41.4090    23.2550    22.6430 hc         1 UZ5       0.033200
     48 H13        -44.4430    23.4790    23.1940 hc         1 UZ5       0.033200
     49 H14        -44.9040    24.3490    21.7310 hc         1 UZ5       0.033200
     50 H15        -43.7280    23.0380    21.6390 hc         1 UZ5       0.033200
     51 H16        -42.0730    24.6420    20.4800 hc         1 UZ5       0.046700
     52 H17        -41.4030    26.0120    21.3510 hc         1 UZ5       0.046700
     53 H18        -42.8630    26.8130    19.5560 h1         1 UZ5       0.031950
     54 H19        -44.2210    25.8470    20.1380 h1         1 UZ5       0.031950
     55 H20        -44.1510    28.8160    19.7180 h1         1 UZ5       0.045700
     56 H21        -45.5740    28.0380    20.4030 h1         1 UZ5       0.045700
     57 H22        -47.3580    31.5340    23.0160 ha         1 UZ5       0.138000
     58 H23        -42.7720    30.3500    21.4810 ha         1 UZ5       0.145000
     59 H24        -44.7350    34.9170    27.5400 hc         1 UZ5       0.066450
     60 H25        -43.1160    34.5690    26.9560 hc         1 UZ5       0.066450
     61 H26        -39.9920    42.6060    23.6810 h1         1 UZ5       0.038033
     62 H27        -40.2960    40.9050    23.2520 h1         1 UZ5       0.038033
     63 H28        -41.5650    41.8630    24.0600 h1         1 UZ5       0.038033
     64 H29        -41.8200    39.4010    24.6670 ha         1 UZ5       0.127000
     65 H30        -46.9640    34.3000    22.5700 h1         1 UZ5       0.071200
     66 H31        -47.6190    33.5820    24.0580 h1         1 UZ5       0.071200
     67 H32        -44.5790    27.8690    23.2990 h1         1 UZ5       0.031950
     68 H33        -45.2760    26.5000    22.4320 h1         1 UZ5       0.031950
     69 H34        -42.4840    26.6790    23.7010 hc         1 UZ5       0.046700
     70 H35        -43.8320    25.7260    24.3020 hc         1 UZ5       0.046700
     71 H37        -39.2450    41.8380    25.7540 hn         1 UZ5       0.508000
     72 H38        -45.8320    36.7400    25.6410 hn         1 UZ5       0.319500
     73 O35        -47.6860    36.3370    24.1160 o          1 UZ5      -0.566000
     74 C01        -41.7680    24.1000    23.2440 c3         1 UZ5      -0.083600
@<TRIPOS>BOND
     1     1     2 ar  
     2     1    18 ar  
     3     1    28 1   
     4     2    17 ar  
     5     2    30 1   
     6     3    19 1   
     7     3    30 1   
     8     3    36 1   
     9     3    37 1   
    10     4    20 1   
    11     4    31 1   
    12     4    38 1   
    13     4    39 1   
    14     5     6 1   
    15     5    19 1   
    16     5    40 1   
    17     5    41 1   
    18     6    31 1   
    19     6    42 1   
    20     6    43 1   
    21     7    22 ar  
    22     7    31 1   
    23     7    32 ar  
    24     8    32 ar  
    25     8    33 ar  
    26     8    44 1   
    27     9    22 ar  
    28     9    33 ar  
    29     9    34 1   
    30    10    11 1   
    31    10    12 1   
    32    10    26 1   
    33    10    74 1   
    34    11    48 1   
    35    11    49 1   
    36    11    50 1   
    37    12    13 1   
    38    12    51 1   
    39    12    52 1   
    40    13    29 1   
    41    13    53 1   
    42    13    54 1   
    43    14    15 1   
    44    14    29 1   
    45    14    55 1   
    46    14    56 1   
    47    15    16 ar  
    48    15    18 ar  
    49    16    17 ar  
    50    16    27 1   
    51    17    57 1   
    52    18    58 1   
    53    19    20 1   
    54    19    35 1   
    55    20    59 1   
    56    20    60 1   
    57    21    34 1   
    58    21    61 1   
    59    21    62 1   
    60    21    63 1   
    61    22    64 1   
    62    23    24 1   
    63    23    30 1   
    64    23    65 1   
    65    23    66 1   
    66    24    35 1   
    67    24    73 2   
    68    25    26 1   
    69    25    29 1   
    70    25    67 1   
    71    25    68 1   
    72    26    69 1   
    73    26    70 1   
    74    34    71 1   
    75    35    72 1   
    76    45    74 1   
    77    46    74 1   
    78    47    74 1   
@<TRIPOS>SUBSTRUCTURE
     1 UZ5         1 TEMP              0 ****  ****    0 ROOT
