@<TRIPOS>MOLECULE
UZ7
   15    15     1     0     0
SMALL
abcg2


@<TRIPOS>ATOM
      1 C14         20.7420     7.5760    -4.4270 ca         1 UZ7      -0.105500
      2 C13         20.1700     8.8020    -4.7500 ca         1 UZ7      -0.174000
      3 C12         18.8490     9.0480    -4.4040 ca         1 UZ7      -0.105500
      4 C15         20.0030     6.6050    -3.7670 ca         1 UZ7      -0.154000
      5 C11         18.1020     8.0770    -3.7480 ca         1 UZ7      -0.154000
      6 C10         18.6750     6.8520    -3.4240 ca         1 UZ7       0.221100
      7 C07         17.5370     4.7390    -3.3600 c          1 UZ7       0.834100
      8 O08         17.7930     4.6400    -4.5580 o          1 UZ7      -0.685500
      9 O09         17.9510     5.9500    -2.7170 os         1 UZ7      -0.471200
     10 H1          21.7730     7.3740    -4.6900 ha         1 UZ7       0.084500
     11 H2          20.7510     9.5570    -5.2630 ha         1 UZ7       0.084000
     12 H3          18.3910     9.9990    -4.6470 ha         1 UZ7       0.084500
     13 H4          20.4600     5.6580    -3.5100 ha         1 UZ7       0.113500
     14 H5          17.0710     8.2700    -3.4770 ha         1 UZ7       0.113500
     15 OXT         16.9650     3.9880    -2.5750 o          1 UZ7      -0.685500
@<TRIPOS>BOND
     1     1     2 ar  
     2     1     4 ar  
     3     1    10 1   
     4     2     3 ar  
     5     2    11 1   
     6     3     5 ar  
     7     3    12 1   
     8     4     6 ar  
     9     4    13 1   
    10     5     6 ar  
    11     5    14 1   
    12     6     9 1   
    13     7     8 1   
    14     7     9 1   
    15     7    15 1   
@<TRIPOS>SUBSTRUCTURE
     1 UZ7         1 TEMP              0 ****  ****    0 ROOT
