@<TRIPOS>MOLECULE
UZ7
   15    15     1     0     0
SMALL
No Charge or Current Charge


@<TRIPOS>ATOM
      1 C14         20.7360     7.5660    -4.4540 ca         1 UZ7      -0.105500
      2 C13         20.1940     8.8320    -4.7370 ca         1 UZ7      -0.174000
      3 C12         18.8660     9.1260    -4.3820 ca         1 UZ7      -0.105500
      4 C15         19.9460     6.5910    -3.8200 ca         1 UZ7      -0.154000
      5 C11         18.0770     8.1500    -3.7480 ca         1 UZ7      -0.154000
      6 C10         18.6100     6.8780    -3.4800 ca         1 UZ7       0.221100
      7 C07         17.5890     4.6930    -3.2940 c          1 UZ7       0.834100
      8 O08         17.9650     4.3770    -4.4130 o          1 UZ7      -0.685500
      9 O09         17.8320     5.9520    -2.8300 os         1 UZ7      -0.471200
     10 H1          21.7660     7.3430    -4.7220 ha         1 UZ7       0.084500
     11 H2          20.8040     9.5870    -5.2260 ha         1 UZ7       0.084000
     12 H3          18.4500    10.1080    -4.5950 ha         1 UZ7       0.084500
     13 H4          20.3690     5.6160    -3.5920 ha         1 UZ7       0.113500
     14 H5          17.0520     8.3760    -3.4670 ha         1 UZ7       0.113500
     15 OXT         16.9770     3.9410    -2.5550 o          1 UZ7      -0.685500
@<TRIPOS>BOND
     1     1     2 ar  
     2     1     4 ar  
     3     1    10 1   
     4     2     3 ar  
     5     2    11 1   
     6     3     5 ar  
     7     3    12 1   
     8     4     6 ar  
     9     4    13 1   
    10     5     6 ar  
    11     5    14 1   
    12     6     9 1   
    13     7     8 1   
    14     7     9 1   
    15     7    15 1   
@<TRIPOS>SUBSTRUCTURE
     1 UZ7         1 TEMP              0 ****  ****    0 ROOT
