@<TRIPOS>MOLECULE
UZ8
   29    30     1     0     0
SMALL
No Charge or Current Charge


@<TRIPOS>ATOM
      1 N1          24.7340    15.4160    37.4370 n          1 UZ8      -0.408800
      2 C7          24.9770    16.7660    36.8760 c5         1 UZ8       0.102000
      3 C8          24.0620    16.7630    35.6220 c5         1 UZ8      -0.093400
      4 C9          24.1180    15.2770    35.1890 c5         1 UZ8      -0.093400
      5 C1          27.2430    16.1620    39.2050 ca         1 UZ8       0.488300
      6 C5          27.5800    17.6270    40.9740 ca         1 UZ8       0.358900
      7 C6          24.9990    15.0780    38.7770 c          1 UZ8       0.616700
      8 C4          26.2570    17.4810    41.4120 ca         1 UZ8      -0.177000
      9 C3          25.3930    16.6360    40.7000 ca         1 UZ8      -0.032000
     10 C2          25.8930    15.9800    39.5610 ca         1 UZ8      -0.176600
     11 O           24.5290    14.0670    39.2830 o          1 UZ8      -0.598100
     12 C10         23.9280    14.5580    36.5470 c5         1 UZ8       0.102000
     13 N           28.0720    16.9740    39.8980 nb         1 UZ8      -0.692000
     14 C           29.6620    15.9880    37.6420 c3         1 UZ8       0.039900
     15 H1          26.0300    16.8890    36.5930 h1         1 UZ8       0.055950
     16 H2          24.7080    17.5680    37.5770 h1         1 UZ8       0.055950
     17 H3          24.4160    17.4490    34.8440 hc         1 UZ8       0.054700
     18 H4          23.0390    17.0600    35.8810 hc         1 UZ8       0.054700
     19 H5          23.3400    15.0140    34.4630 hc         1 UZ8       0.054700
     20 H6          25.0870    15.0280    34.7410 hc         1 UZ8       0.054700
     21 H7          28.2740    18.2760    41.5070 h4         1 UZ8       0.021100
     22 H8          25.9110    18.0180    42.2910 ha         1 UZ8       0.129000
     23 H9          24.3590    16.5040    41.0160 ha         1 UZ8       0.129000
     24 H10         22.8750    14.5520    36.8610 h1         1 UZ8       0.055950
     25 H11         24.2940    13.5230    36.5210 h1         1 UZ8       0.055950
     26 H12         30.1840    15.4980    36.8100 h1         1 UZ8       0.070033
     27 H13         29.5680    17.0590    37.4240 h1         1 UZ8       0.070033
     28 H14         30.2500    15.8560    38.5590 h1         1 UZ8       0.070033
     29 S           27.9820    15.2380    37.8540 ss         1 UZ8      -0.370300
@<TRIPOS>BOND
     1     1     2 1   
     2     1     7 1   
     3     1    12 1   
     4     2     3 1   
     5     2    15 1   
     6     2    16 1   
     7     3     4 1   
     8     3    17 1   
     9     3    18 1   
    10     4    12 1   
    11     4    19 1   
    12     4    20 1   
    13     5    10 ar  
    14     5    13 ar  
    15     5    29 1   
    16     6     8 ar  
    17     6    13 ar  
    18     6    21 1   
    19     7    10 1   
    20     7    11 2   
    21     8     9 ar  
    22     8    22 1   
    23     9    10 ar  
    24     9    23 1   
    25    12    24 1   
    26    12    25 1   
    27    14    26 1   
    28    14    27 1   
    29    14    28 1   
    30    14    29 1   
@<TRIPOS>SUBSTRUCTURE
     1 UZ8         1 TEMP              0 ****  ****    0 ROOT
