@<TRIPOS>MOLECULE
UZ8
   29    30     1     0     0
SMALL
abcg2


@<TRIPOS>ATOM
      1 N1          24.7270    15.4390    37.4390 n          1 UZ8      -0.408800
      2 C7          24.9230    16.7810    36.8620 c5         1 UZ8       0.102000
      3 C8          23.9380    16.8030    35.6930 c5         1 UZ8      -0.093400
      4 C9          23.9020    15.3410    35.2360 c5         1 UZ8      -0.093400
      5 C1          27.3480    16.1890    39.1770 ca         1 UZ8       0.488300
      6 C5          27.5330    17.6710    40.9170 ca         1 UZ8       0.358900
      7 C6          25.1530    15.0230    38.6350 c          1 UZ8       0.616700
      8 C4          26.1970    17.5350    41.2580 ca         1 UZ8      -0.177000
      9 C3          25.4130    16.6720    40.5000 ca         1 UZ8      -0.032000
     10 C2          25.9790    15.9910    39.4340 ca         1 UZ8      -0.176600
     11 O           24.8970    13.9010    39.0920 o          1 UZ8      -0.598100
     12 C10         23.9560    14.5590    36.5480 c5         1 UZ8       0.102000
     13 N           28.1020    17.0100    39.9030 nb         1 UZ8      -0.692000
     14 C           29.7950    15.8960    37.8750 c3         1 UZ8       0.039900
     15 H1          25.9530    16.8880    36.5120 h1         1 UZ8       0.055950
     16 H2          24.7250    17.5520    37.6030 h1         1 UZ8       0.055950
     17 H3          24.2530    17.4910    34.9100 hc         1 UZ8       0.054700
     18 H4          22.9510    17.1120    36.0440 hc         1 UZ8       0.054700
     19 H5          23.0170    15.0970    34.6510 hc         1 UZ8       0.054700
     20 H6          24.7840    15.1160    34.6320 hc         1 UZ8       0.054700
     21 H7          28.1820    18.3350    41.4760 h4         1 UZ8       0.021100
     22 H8          25.7820    18.0880    42.0900 ha         1 UZ8       0.129000
     23 H9          24.3630    16.5350    40.7260 ha         1 UZ8       0.129000
     24 H10         22.9590    14.3970    36.9660 h1         1 UZ8       0.055950
     25 H11         24.4470    13.5910    36.4600 h1         1 UZ8       0.055950
     26 H12         30.2980    15.3720    37.0630 h1         1 UZ8       0.070033
     27 H13         29.8230    16.9690    37.6970 h1         1 UZ8       0.070033
     28 H14         30.2720    15.6610    38.8230 h1         1 UZ8       0.070033
     29 S           28.0920    15.2890    37.8450 ss         1 UZ8      -0.370300
@<TRIPOS>BOND
     1     1     2 1   
     2     1     7 1   
     3     1    12 1   
     4     2     3 1   
     5     2    15 1   
     6     2    16 1   
     7     3     4 1   
     8     3    17 1   
     9     3    18 1   
    10     4    12 1   
    11     4    19 1   
    12     4    20 1   
    13     5    10 ar  
    14     5    13 ar  
    15     5    29 1   
    16     6     8 ar  
    17     6    13 ar  
    18     6    21 1   
    19     7    10 1   
    20     7    11 2   
    21     8     9 ar  
    22     8    22 1   
    23     9    10 ar  
    24     9    23 1   
    25    12    24 1   
    26    12    25 1   
    27    14    26 1   
    28    14    27 1   
    29    14    28 1   
    30    14    29 1   
@<TRIPOS>SUBSTRUCTURE
     1 UZ8         1 TEMP              0 ****  ****    0 ROOT
