@<TRIPOS>MOLECULE
UZ9
   85    88     1     0     0
SMALL
abcg2


@<TRIPOS>ATOM
      1 C1          39.3630    30.4950    39.9660 c6         1 UZ9      -0.063400
      2 C2          38.9960    31.4540    41.1060 c6         1 UZ9      -0.183400
      3 C3          37.9950    30.8150    42.0290 c          1 UZ9       0.573100
      4 C4          36.8050    30.1980    41.3480 c6         1 UZ9      -0.182400
      5 C5          37.1760    29.2930    40.1510 c6         1 UZ9      -0.041700
      6 C6          35.9040    28.7980    39.4530 c6         1 UZ9      -0.069400
      7 N           29.2850    32.2550    31.2560 n8         1 UZ9      -1.008200
      8 CA          28.3390    33.2520    30.7390 c3         1 UZ9       0.020500
      9 CB          28.5990    34.6790    31.2600 c3         1 UZ9      -0.078400
     10 CG          29.8980    35.3120    30.7700 c3         1 UZ9      -0.076400
     11 CD          30.1440    36.6950    31.3680 c3         1 UZ9      -0.100400
     12 CE          31.4110    37.3680    30.8400 c3         1 UZ9       0.104000
     13 NZ          32.6310    36.6590    31.1970 ns         1 UZ9      -0.497900
     14 C24         33.3690    36.9440    32.2870 c          1 UZ9       0.590100
     15 O2          33.0900    37.8720    33.0550 o          1 UZ9      -0.633100
     16 C23         34.5740    36.0590    32.5260 c3         1 UZ9      -0.154400
     17 C22         34.4870    35.3660    33.8910 c3         1 UZ9      -0.069400
     18 C20         35.6250    34.3680    34.1700 c3         1 UZ9      -0.050700
     19 C21         36.9780    35.0820    34.1860 c3         1 UZ9      -0.086100
     20 C17         35.3260    33.6040    35.4720 c5         1 UZ9      -0.052700
     21 C16         33.9730    32.8320    35.4100 c5         1 UZ9      -0.077400
     22 C13         36.3330    32.5280    35.9740 c5         1 UZ9      -0.041000
     23 C12         37.5710    33.0440    36.7170 c6         1 UZ9      -0.062400
     24 C18         36.7450    31.6030    34.8170 c3         1 UZ9      -0.078100
     25 C14         35.4540    31.8020    37.0210 c5         1 UZ9      -0.065700
     26 C15         34.1230    31.5810    36.3070 c5         1 UZ9      -0.070400
     27 C8          36.1330    30.6180    37.6970 c6         1 UZ9      -0.044700
     28 C7          35.1970    29.9100    38.6800 c6         1 UZ9      -0.072400
     29 C9          37.4130    31.1190    38.4060 c6         1 UZ9      -0.045700
     30 C11         38.3110    31.9170    37.4500 c6         1 UZ9      -0.070400
     31 C10         38.1560    29.9760    39.1580 c6         1 UZ9      -0.036000
     32 C19         38.7050    28.9240    38.1800 c3         1 UZ9      -0.083100
     33 O1          38.1390    30.7930    43.2400 o          1 UZ9      -0.534100
     34 C           28.3280    33.2500    29.1890 c          1 UZ9       0.708000
     35 OXT         27.3530    33.8270    28.6430 o          1 UZ9      -0.735500
     36 O           29.2940    32.7040    28.5960 o          1 UZ9      -0.735500
     37 H1C1        39.8740    29.6270    40.3950 hc         1 UZ9       0.044700
     38 H1C2        40.0840    30.9780    39.3060 hc         1 UZ9       0.044700
     39 H2C1        38.5390    32.3610    40.6940 hc         1 UZ9       0.066700
     40 H2C2        39.8760    31.7520    41.6770 hc         1 UZ9       0.066700
     41 H4C1        36.1820    31.0300    41.0030 hc         1 UZ9       0.067700
     42 H4C2        36.2240    29.6370    42.0810 hc         1 UZ9       0.067700
     43 H5          37.6990    28.4240    40.5650 hc         1 UZ9       0.045700
     44 H6C1        35.2280    28.3650    40.1960 hc         1 UZ9       0.042200
     45 H6C2        36.1650    27.9910    38.7640 hc         1 UZ9       0.042200
     46 HA          27.3280    32.9770    31.0550 h1         1 UZ9       0.050700
     47 HBC1        28.6050    34.6420    32.3560 hc         1 UZ9       0.023700
     48 HBC2        27.7550    35.3120    30.9740 hc         1 UZ9       0.023700
     49 HGC1        29.8740    35.3960    29.6780 hc         1 UZ9       0.045200
     50 HGC2        30.7380    34.6540    31.0120 hc         1 UZ9       0.045200
     51 HDC1        30.2050    36.6260    32.4590 hc         1 UZ9       0.042200
     52 HDC2        29.2960    37.3480    31.1390 hc         1 UZ9       0.042200
     53 HEC1        31.4940    38.3790    31.2360 h1         1 UZ9       0.050700
     54 HEC2        31.3710    37.4340    29.7510 h1         1 UZ9       0.050700
     55 HZ          32.9030    35.8680    30.6360 hn         1 UZ9       0.316500
     56 H231        35.4530    36.7040    32.4760 hc         1 UZ9       0.053700
     57 H232        34.6690    35.3130    31.7340 hc         1 UZ9       0.053700
     58 H221        33.5290    34.8460    33.9440 hc         1 UZ9       0.054200
     59 H222        34.4760    36.1250    34.6780 hc         1 UZ9       0.054200
     60 H20         35.6300    33.6420    33.3480 hc         1 UZ9       0.046700
     61 H211        37.8050    34.3770    34.2430 hc         1 UZ9       0.031033
     62 H212        37.0490    35.7540    35.0460 hc         1 UZ9       0.031033
     63 H213        37.1240    35.6760    33.2840 hc         1 UZ9       0.031033
     64 H17         35.2580    34.3520    36.2720 hc         1 UZ9       0.043700
     65 H161        33.7510    32.5480    34.3790 hc         1 UZ9       0.049200
     66 H162        33.1500    33.4630    35.7450 hc         1 UZ9       0.049200
     67 H121        37.2470    33.7960    37.4460 hc         1 UZ9       0.040200
     68 H122        38.2690    33.5400    36.0420 hc         1 UZ9       0.040200
     69 H181        37.2880    30.7290    35.1710 hc         1 UZ9       0.033367
     70 H182        37.3950    32.1320    34.1190 hc         1 UZ9       0.033367
     71 H183        35.8800    31.2470    34.2560 hc         1 UZ9       0.033367
     72 H14         35.2700    32.5440    37.8110 hc         1 UZ9       0.040700
     73 H151        34.1570    30.6690    35.7060 hc         1 UZ9       0.043200
     74 H152        33.2920    31.4720    37.0040 hc         1 UZ9       0.043200
     75 H8          36.4130    29.8930    36.9270 hc         1 UZ9       0.051700
     76 H7C1        34.7840    30.6500    39.3740 hc         1 UZ9       0.042200
     77 H7C2        34.3440    29.4910    38.1410 hc         1 UZ9       0.042200
     78 H9          37.0660    31.8330    39.1620 hc         1 UZ9       0.040700
     79 H111        39.1400    32.3560    38.0080 hc         1 UZ9       0.036700
     80 H112        38.7610    31.2450    36.7160 hc         1 UZ9       0.036700
     81 H191        37.9420    28.5440    37.5030 hc         1 UZ9       0.035367
     82 H192        39.1110    28.0760    38.7370 hc         1 UZ9       0.035367
     83 H193        39.5110    29.3390    37.5750 hc         1 UZ9       0.035367
     84 HN1         29.7000    32.5750    32.1250 hn         1 UZ9       0.383000
     85 HN2         30.0320    32.1630    30.5740 hn         1 UZ9       0.383000
@<TRIPOS>BOND
     1     1     2 1   
     2     1    31 1   
     3     1    37 1   
     4     1    38 1   
     5     2     3 1   
     6     2    39 1   
     7     2    40 1   
     8     3     4 1   
     9     3    33 2   
    10     4     5 1   
    11     4    41 1   
    12     4    42 1   
    13     5     6 1   
    14     5    31 1   
    15     5    43 1   
    16     6    28 1   
    17     6    44 1   
    18     6    45 1   
    19     7     8 1   
    20     7    84 1   
    21     7    85 1   
    22     8     9 1   
    23     8    34 1   
    24     8    46 1   
    25     9    10 1   
    26     9    47 1   
    27     9    48 1   
    28    10    11 1   
    29    10    49 1   
    30    10    50 1   
    31    11    12 1   
    32    11    51 1   
    33    11    52 1   
    34    12    13 1   
    35    12    53 1   
    36    12    54 1   
    37    13    14 1   
    38    13    55 1   
    39    14    15 2   
    40    14    16 1   
    41    16    17 1   
    42    16    56 1   
    43    16    57 1   
    44    17    18 1   
    45    17    58 1   
    46    17    59 1   
    47    18    19 1   
    48    18    20 1   
    49    18    60 1   
    50    19    61 1   
    51    19    62 1   
    52    19    63 1   
    53    20    21 1   
    54    20    22 1   
    55    20    64 1   
    56    21    26 1   
    57    21    65 1   
    58    21    66 1   
    59    22    23 1   
    60    22    24 1   
    61    22    25 1   
    62    23    30 1   
    63    23    67 1   
    64    23    68 1   
    65    24    69 1   
    66    24    70 1   
    67    24    71 1   
    68    25    26 1   
    69    25    27 1   
    70    25    72 1   
    71    26    73 1   
    72    26    74 1   
    73    27    28 1   
    74    27    29 1   
    75    27    75 1   
    76    28    76 1   
    77    28    77 1   
    78    29    30 1   
    79    29    31 1   
    80    29    78 1   
    81    30    79 1   
    82    30    80 1   
    83    31    32 1   
    84    32    81 1   
    85    32    82 1   
    86    32    83 1   
    87    34    35 1   
    88    34    36 1   
@<TRIPOS>SUBSTRUCTURE
     1 UZ9         1 TEMP              0 ****  ****    0 ROOT
