@<TRIPOS>MOLECULE
UZ9
   85    88     1     0     0
SMALL
No Charge or Current Charge


@<TRIPOS>ATOM
      1 C1          39.0910    30.4520    40.0750 c6         1 UZ9      -0.063400
      2 C2          38.6000    31.3720    41.2210 c6         1 UZ9      -0.183400
      3 C3          37.4750    30.7070    42.0170 c          1 UZ9       0.573100
      4 C4          36.3400    30.1030    41.1870 c6         1 UZ9      -0.182400
      5 C5          36.8560    29.2240    39.9990 c6         1 UZ9      -0.041700
      6 C6          35.6640    28.7190    39.1340 c6         1 UZ9      -0.069400
      7 N           29.7750    32.3660    32.6110 n8         1 UZ9      -1.008200
      8 CA          28.6820    33.0760    31.8490 c3         1 UZ9       0.020500
      9 CB          28.9060    34.6140    31.8900 c3         1 UZ9      -0.078400
     10 CG          30.1670    35.1240    31.1470 c3         1 UZ9      -0.076400
     11 CD          30.3070    36.6650    31.1950 c3         1 UZ9      -0.100400
     12 CE          31.5250    37.2090    30.4160 c3         1 UZ9       0.104000
     13 NZ          32.8020    36.7360    30.9560 ns         1 UZ9      -0.497900
     14 C24         33.4060    37.2260    32.0910 c          1 UZ9       0.590100
     15 O2          32.9480    38.1670    32.7260 o          1 UZ9      -0.633100
     16 C23         34.7180    36.5340    32.4770 c3         1 UZ9      -0.154400
     17 C22         34.5280    35.6240    33.7200 c3         1 UZ9      -0.069400
     18 C20         35.7130    34.6580    34.0440 c3         1 UZ9      -0.050700
     19 C21         37.0050    35.4590    34.3490 c3         1 UZ9      -0.086100
     20 C17         35.3170    33.6600    35.2250 c5         1 UZ9      -0.052700
     21 C16         34.0650    32.7690    34.8830 c5         1 UZ9      -0.077400
     22 C13         36.3860    32.5760    35.7160 c5         1 UZ9      -0.041000
     23 C12         37.5940    33.0720    36.6110 c6         1 UZ9      -0.062400
     24 C18         36.9750    31.7500    34.5200 c3         1 UZ9      -0.078100
     25 C14         35.4150    31.7870    36.6540 c5         1 UZ9      -0.065700
     26 C15         34.2180    31.4660    35.7240 c5         1 UZ9      -0.070400
     27 C8          36.0680    30.5920    37.4120 c6         1 UZ9      -0.044700
     28 C7          35.0220    29.8490    38.2920 c6         1 UZ9      -0.072400
     29 C9          37.2780    31.1060    38.2760 c6         1 UZ9      -0.045700
     30 C11         38.2820    31.9130    37.3860 c6         1 UZ9      -0.070400
     31 C10         37.9550    29.9370    39.1180 c6         1 UZ9      -0.036000
     32 C19         38.6350    28.8810    38.1730 c3         1 UZ9      -0.083100
     33 O1          37.5060    30.6200    43.2380 o          1 UZ9      -0.534100
     34 C           28.3690    32.5660    30.3770 c          1 UZ9       0.708000
     35 OXT         27.1970    32.4960    30.0290 o          1 UZ9      -0.735500
     36 O           29.2920    32.1520    29.6840 o          1 UZ9      -0.735500
     37 H1C1        39.5860    29.5860    40.5370 hc         1 UZ9       0.044700
     38 H1C2        39.8850    30.9570    39.5110 hc         1 UZ9       0.044700
     39 H2C1        38.1770    32.2670    40.7480 hc         1 UZ9       0.066700
     40 H2C2        39.4140    31.6750    41.8910 hc         1 UZ9       0.066700
     41 H4C1        35.8080    30.9590    40.7590 hc         1 UZ9       0.067700
     42 H4C2        35.6490    29.5560    41.8420 hc         1 UZ9       0.067700
     43 H5          37.3180    28.3360    40.4550 hc         1 UZ9       0.045700
     44 H6C1        34.9000    28.2680    39.7820 hc         1 UZ9       0.042200
     45 H6C2        35.9950    27.9110    38.4700 hc         1 UZ9       0.042200
     46 HA          27.7590    32.8960    32.4180 h1         1 UZ9       0.050700
     47 HBC1        28.9540    34.9400    32.9360 hc         1 UZ9       0.023700
     48 HBC2        28.0230    35.1010    31.4590 hc         1 UZ9       0.023700
     49 HGC1        30.1270    34.8070    30.0980 hc         1 UZ9       0.045200
     50 HGC2        31.0610    34.6660    31.5880 hc         1 UZ9       0.045200
     51 HDC1        30.3680    36.9940    32.2400 hc         1 UZ9       0.042200
     52 HDC2        29.4010    37.1180    30.7760 hc         1 UZ9       0.042200
     53 HEC1        31.5130    38.3070    30.4430 h1         1 UZ9       0.050700
     54 HEC2        31.4530    36.9020    29.3650 h1         1 UZ9       0.050700
     55 HZ          33.2660    35.9660    30.4900 hn         1 UZ9       0.316500
     56 H231        35.4550    37.3110    32.7060 hc         1 UZ9       0.053700
     57 H232        35.0710    35.9160    31.6430 hc         1 UZ9       0.053700
     58 H221        33.6220    35.0320    33.5460 hc         1 UZ9       0.054200
     59 H222        34.3190    36.2510    34.5970 hc         1 UZ9       0.054200
     60 H20         35.9220    34.1190    33.0940 hc         1 UZ9       0.046700
     61 H211        37.8820    34.8080    34.3050 hc         1 UZ9       0.031033
     62 H212        36.9560    35.9260    35.3410 hc         1 UZ9       0.031033
     63 H213        37.1860    36.2460    33.6100 hc         1 UZ9       0.031033
     64 H17         35.0640    34.3120    36.0710 hc         1 UZ9       0.043700
     65 H161        34.0150    32.5290    33.8150 hc         1 UZ9       0.049200
     66 H162        33.1320    33.2900    35.1290 hc         1 UZ9       0.049200
     67 H121        37.2320    33.8180    37.3310 hc         1 UZ9       0.040200
     68 H122        38.3550    33.5770    36.0070 hc         1 UZ9       0.040200
     69 H181        37.4940    30.8450    34.8510 hc         1 UZ9       0.033367
     70 H182        37.7000    32.3460    33.9540 hc         1 UZ9       0.033367
     71 H183        36.2100    31.4310    33.8040 hc         1 UZ9       0.033367
     72 H14         35.0620    32.4570    37.4480 hc         1 UZ9       0.040700
     73 H151        34.4170    30.5960    35.0880 hc         1 UZ9       0.043200
     74 H152        33.3070    31.2410    36.2900 hc         1 UZ9       0.043200
     75 H8          36.4330    29.8820    36.6600 hc         1 UZ9       0.051700
     76 H7C1        34.5040    30.5610    38.9470 hc         1 UZ9       0.042200
     77 H7C2        34.2440    29.4080    37.6540 hc         1 UZ9       0.042200
     78 H9          36.8610    31.8350    38.9810 hc         1 UZ9       0.040700
     79 H111        39.0690    32.3560    38.0080 hc         1 UZ9       0.036700
     80 H112        38.7940    31.2510    36.6770 hc         1 UZ9       0.036700
     81 H191        37.9580    28.4740    37.4160 hc         1 UZ9       0.035367
     82 H192        39.0140    28.0250    38.7460 hc         1 UZ9       0.035367
     83 H193        39.4950    29.3040    37.6420 hc         1 UZ9       0.035367
     84 HN1         30.0170    32.9140    33.4430 hn         1 UZ9       0.383000
     85 HN2         30.6290    32.3880    32.0410 hn         1 UZ9       0.383000
@<TRIPOS>BOND
     1     1     2 1   
     2     1    31 1   
     3     1    37 1   
     4     1    38 1   
     5     2     3 1   
     6     2    39 1   
     7     2    40 1   
     8     3     4 1   
     9     3    33 2   
    10     4     5 1   
    11     4    41 1   
    12     4    42 1   
    13     5     6 1   
    14     5    31 1   
    15     5    43 1   
    16     6    28 1   
    17     6    44 1   
    18     6    45 1   
    19     7     8 1   
    20     7    84 1   
    21     7    85 1   
    22     8     9 1   
    23     8    34 1   
    24     8    46 1   
    25     9    10 1   
    26     9    47 1   
    27     9    48 1   
    28    10    11 1   
    29    10    49 1   
    30    10    50 1   
    31    11    12 1   
    32    11    51 1   
    33    11    52 1   
    34    12    13 1   
    35    12    53 1   
    36    12    54 1   
    37    13    14 1   
    38    13    55 1   
    39    14    15 2   
    40    14    16 1   
    41    16    17 1   
    42    16    56 1   
    43    16    57 1   
    44    17    18 1   
    45    17    58 1   
    46    17    59 1   
    47    18    19 1   
    48    18    20 1   
    49    18    60 1   
    50    19    61 1   
    51    19    62 1   
    52    19    63 1   
    53    20    21 1   
    54    20    22 1   
    55    20    64 1   
    56    21    26 1   
    57    21    65 1   
    58    21    66 1   
    59    22    23 1   
    60    22    24 1   
    61    22    25 1   
    62    23    30 1   
    63    23    67 1   
    64    23    68 1   
    65    24    69 1   
    66    24    70 1   
    67    24    71 1   
    68    25    26 1   
    69    25    27 1   
    70    25    72 1   
    71    26    73 1   
    72    26    74 1   
    73    27    28 1   
    74    27    29 1   
    75    27    75 1   
    76    28    76 1   
    77    28    77 1   
    78    29    30 1   
    79    29    31 1   
    80    29    78 1   
    81    30    79 1   
    82    30    80 1   
    83    31    32 1   
    84    32    81 1   
    85    32    82 1   
    86    32    83 1   
    87    34    35 1   
    88    34    36 1   
@<TRIPOS>SUBSTRUCTURE
     1 UZ9         1 TEMP              0 ****  ****    0 ROOT
