@<TRIPOS>MOLECULE
UZA
   31    30     1     0     0
SMALL
No Charge or Current Charge


@<TRIPOS>ATOM
      1 N           -2.2350   -13.0830    -4.6120 n8         1 UZA      -0.887800
      2 CA          -1.3860   -14.2740    -5.0000 c3         1 UZA       0.029200
      3 C            0.1970   -13.9820    -5.0340 c          1 UZA       0.906600
      4 O            0.9900   -14.8730    -4.7410 o          1 UZA      -0.837300
      5 CB1         -1.6910   -15.3950    -3.9620 c3         1 UZA      -0.056100
      6 C05         -7.6600   -16.0830   -10.7430 c3         1 UZA      -0.085100
      7 C06         -7.3560   -15.7000    -9.2840 c3         1 UZA      -0.035200
      8 C07         -5.9110   -15.2920    -9.0880 c2         1 UZA      -0.204200
      9 C08         -5.0200   -15.9370    -8.3190 c2         1 UZA      -0.138200
     10 C09         -3.5750   -15.5280    -8.1240 c3         1 UZA      -0.051200
     11 C11         -1.7890   -14.7230    -6.4430 c3         1 UZA      -0.046400
     12 OXT          0.5750   -12.8310    -5.2380 o          1 UZA      -0.837300
     13 H1          -2.0110   -12.8180    -3.6480 hn         1 UZA       0.326800
     14 H2          -1.9210   -12.2770    -5.1620 hn         1 UZA       0.326800
     15 H4          -1.2780   -15.1350    -2.9800 hc         1 UZA       0.017367
     16 H5          -2.7690   -15.5480    -3.8370 hc         1 UZA       0.017367
     17 H6          -1.2520   -16.3510    -4.2730 hc         1 UZA       0.017367
     18 H7          -8.7110   -16.3740   -10.8520 hc         1 UZA       0.026700
     19 H8          -7.4660   -15.2370   -11.4140 hc         1 UZA       0.026700
     20 H9          -7.0340   -16.9270   -11.0590 hc         1 UZA       0.026700
     21 H10         -8.0170   -14.8770    -8.9860 hc         1 UZA       0.036200
     22 H11         -7.6060   -16.5500    -8.6370 hc         1 UZA       0.036200
     23 H12         -5.6190   -14.3930    -9.6320 ha         1 UZA       0.114000
     24 H13         -5.3110   -16.8360    -7.7750 ha         1 UZA       0.106000
     25 H14         -2.9170   -16.3540    -8.4220 hc         1 UZA       0.040200
     26 H15         -3.3280   -14.6820    -8.7780 hc         1 UZA       0.040200
     27 H16         -3.9340   -14.3130    -6.3740 hc         1 UZA       0.039200
     28 H17         -3.5160   -15.9890    -6.0170 hc         1 UZA       0.039200
     29 H18         -1.1510   -15.5670    -6.7340 hc         1 UZA       0.037700
     30 H19         -1.5480   -13.9110    -7.1410 hc         1 UZA       0.037700
     31 C10         -3.2700   -15.1370    -6.6620 c3         1 UZA      -0.068400
@<TRIPOS>BOND
     1     1     2 1   
     2     1    13 1   
     3     1    14 1   
     4     2     3 1   
     5     2     5 1   
     6     2    11 1   
     7     3     4 1   
     8     3    12 1   
     9     5    15 1   
    10     5    16 1   
    11     5    17 1   
    12     6     7 1   
    13     6    18 1   
    14     6    19 1   
    15     6    20 1   
    16     7     8 1   
    17     7    21 1   
    18     7    22 1   
    19     8     9 2   
    20     8    23 1   
    21     9    10 1   
    22     9    24 1   
    23    10    25 1   
    24    10    26 1   
    25    10    31 1   
    26    11    29 1   
    27    11    30 1   
    28    11    31 1   
    29    27    31 1   
    30    28    31 1   
@<TRIPOS>SUBSTRUCTURE
     1 UZA         1 TEMP              0 ****  ****    0 ROOT
