@<TRIPOS>MOLECULE
UZA
   31    30     1     0     0
SMALL
bcc


@<TRIPOS>ATOM
      1 N           -2.1890   -13.0660    -4.7570 n8         1 UZA      -0.887800
      2 CA          -1.4200   -14.2780    -5.0320 c3         1 UZA       0.029200
      3 C            0.1270   -14.0540    -5.0160 c          1 UZA       0.906600
      4 O            0.8350   -15.0790    -5.1240 o          1 UZA      -0.837300
      5 CB1         -1.7840   -15.3150    -3.9690 c3         1 UZA      -0.056100
      6 C05         -7.6110   -16.0480   -10.6970 c3         1 UZA      -0.085100
      7 C06         -7.3060   -15.7770    -9.2260 c3         1 UZA      -0.035200
      8 C07         -5.9050   -15.2930    -9.0180 c2         1 UZA      -0.204200
      9 C08         -4.9690   -15.9290    -8.3200 c2         1 UZA      -0.138200
     10 C09         -3.5670   -15.4500    -8.1150 c3         1 UZA      -0.051200
     11 C11         -1.7940   -14.7750    -6.4400 c3         1 UZA      -0.046400
     12 OXT          0.5380   -12.8810    -4.9140 o          1 UZA      -0.837300
     13 H1          -1.9630   -12.7480    -3.8210 hn         1 UZA       0.326800
     14 H2          -1.8350   -12.3290    -5.3560 hn         1 UZA       0.326800
     15 H4          -1.4490   -14.9920    -2.9790 hc         1 UZA       0.017367
     16 H5          -2.8630   -15.4640    -3.9120 hc         1 UZA       0.017367
     17 H6          -1.3180   -16.2760    -4.1770 hc         1 UZA       0.017367
     18 H7          -8.6450   -16.3670   -10.8340 hc         1 UZA       0.026700
     19 H8          -7.4580   -15.1540   -11.3050 hc         1 UZA       0.026700
     20 H9          -6.9640   -16.8310   -11.0930 hc         1 UZA       0.026700
     21 H10         -8.0110   -15.0270    -8.8520 hc         1 UZA       0.036200
     22 H11         -7.4780   -16.6830    -8.6390 hc         1 UZA       0.036200
     23 H12         -5.6480   -14.3540    -9.5060 ha         1 UZA       0.114000
     24 H13         -5.2280   -16.8690    -7.8330 ha         1 UZA       0.106000
     25 H14         -2.8680   -16.2130    -8.4770 hc         1 UZA       0.040200
     26 H15         -3.3870   -14.5550    -8.7170 hc         1 UZA       0.040200
     27 H16         -3.9050   -14.3520    -6.2930 hc         1 UZA       0.039200
     28 H17         -3.5030   -16.0390    -6.0490 hc         1 UZA       0.039200
     29 H18         -1.1650   -15.6330    -6.6900 hc         1 UZA       0.037700
     30 H19         -1.5320   -13.9890    -7.1610 hc         1 UZA       0.037700
     31 C10         -3.2550   -15.1560    -6.6460 c3         1 UZA      -0.068400
@<TRIPOS>BOND
     1     1     2 1   
     2     1    13 1   
     3     1    14 1   
     4     2     3 1   
     5     2     5 1   
     6     2    11 1   
     7     3     4 1   
     8     3    12 1   
     9     5    15 1   
    10     5    16 1   
    11     5    17 1   
    12     6     7 1   
    13     6    18 1   
    14     6    19 1   
    15     6    20 1   
    16     7     8 1   
    17     7    21 1   
    18     7    22 1   
    19     8     9 2   
    20     8    23 1   
    21     9    10 1   
    22     9    24 1   
    23    10    25 1   
    24    10    26 1   
    25    10    31 1   
    26    11    29 1   
    27    11    30 1   
    28    11    31 1   
    29    27    31 1   
    30    28    31 1   
@<TRIPOS>SUBSTRUCTURE
     1 UZA         1 TEMP              0 ****  ****    0 ROOT
