@<TRIPOS>MOLECULE
UZD
   52    52     1     0     0
SMALL
No Charge or Current Charge


@<TRIPOS>ATOM
      1 O           -7.6790   -30.2440   -29.1110 o          1 UZD      -0.545000
      2 C7          -8.5380   -29.5450   -29.6220 c          1 UZD       0.640100
      3 O1          -8.3120   -28.5450   -30.5260 os         1 UZD      -0.443100
      4 C8          -6.9550   -28.1150   -30.7730 c3         1 UZD       0.182600
      5 C9          -6.3850   -27.3450   -29.5370 c6         1 UZD       0.106300
      6 C14         -4.9250   -26.8590   -29.7610 c6         1 UZD       0.155300
      7 O6          -4.0300   -27.9420   -30.0610 oh         1 UZD      -0.681000
      8 C13         -4.3990   -26.0980   -28.4950 c6         1 UZD       0.183300
      9 O5          -3.4790   -26.9210   -27.7420 oh         1 UZD      -0.633000
     10 O2          -7.2710   -26.2130   -29.2760 os         1 UZD      -0.481000
     11 C10         -6.7710   -25.1470   -28.4240 c6         1 UZD       0.360300
     12 O3          -6.3890   -24.0370   -29.2590 os         1 UZD      -0.467000
     13 C11         -7.4510   -23.3980   -29.9890 c3         1 UZD       0.147900
     14 C12         -5.5550   -25.6230   -27.5520 c6         1 UZD       0.106300
     15 O4          -5.0520   -24.6120   -26.6370 oh         1 UZD      -0.704000
     16 N           -9.8760   -29.7060   -29.3670 ns         1 UZD      -0.498900
     17 C6         -10.9550   -28.8440   -29.8630 c3         1 UZD       0.120000
     18 C5         -10.9970   -27.4850   -29.1310 c3         1 UZD      -0.108400
     19 C4         -12.0990   -26.5440   -29.6640 c3         1 UZD      -0.072400
     20 C3         -12.1050   -25.1700   -28.9590 c3         1 UZD      -0.074400
     21 C2         -13.2020   -24.2210   -29.4950 c3         1 UZD      -0.074400
     22 C1         -13.1800   -22.8040   -28.8730 c3         1 UZD      -0.072400
     23 C          -13.4960   -22.7660   -27.3630 c3         1 UZD      -0.089100
     24 H1          -6.3110   -28.9740   -31.0020 h1         1 UZD       0.064200
     25 H2          -6.9270   -27.4410   -31.6380 h1         1 UZD       0.064200
     26 H3          -6.4010   -28.0190   -28.6680 h1         1 UZD       0.090700
     27 H4          -4.9400   -26.1500   -30.6030 h1         1 UZD       0.052700
     28 H5          -3.4620   -27.9830   -29.2490 ho         1 UZD       0.499000
     29 H6          -3.8740   -25.2020   -28.8580 h1         1 UZD       0.065700
     30 H7          -3.2890   -26.4140   -26.9200 ho         1 UZD       0.447000
     31 H8          -7.5830   -24.8240   -27.7540 h2         1 UZD       0.060700
     32 H9          -7.0600   -22.5490   -30.5650 h1         1 UZD       0.034033
     33 H10         -7.9210   -24.0970   -30.6930 h1         1 UZD       0.034033
     34 H11         -8.2230   -23.0210   -29.3060 h1         1 UZD       0.034033
     35 H12         -5.9030   -26.4900   -26.9700 h1         1 UZD       0.058700
     36 H13         -5.8150   -24.2810   -26.1070 ho         1 UZD       0.508000
     37 H14        -10.1110   -30.4490   -28.7220 hn         1 UZD       0.330500
     38 H15        -10.8230   -28.6840   -30.9410 h1         1 UZD       0.050700
     39 H16        -11.9110   -29.3650   -29.7170 h1         1 UZD       0.050700
     40 H17        -11.1540   -27.6590   -28.0600 hc         1 UZD       0.053200
     41 H18        -10.0270   -26.9850   -29.2340 hc         1 UZD       0.053200
     42 H19        -11.9540   -26.3950   -30.7410 hc         1 UZD       0.037200
     43 H20        -13.0770   -27.0230   -29.5340 hc         1 UZD       0.037200
     44 H21        -12.2470   -25.3250   -27.8830 hc         1 UZD       0.037700
     45 H22        -11.1240   -24.6950   -29.0890 hc         1 UZD       0.037700
     46 H23        -14.1880   -24.6730   -29.3290 hc         1 UZD       0.037200
     47 H24        -13.0830   -24.1210   -30.5810 hc         1 UZD       0.037200
     48 H25        -12.2010   -22.3430   -29.0490 hc         1 UZD       0.036200
     49 H26        -13.9170   -22.1830   -29.3970 hc         1 UZD       0.036200
     50 H27        -13.5460   -21.7280   -27.0130 hc         1 UZD       0.031700
     51 H28        -14.4610   -23.2430   -27.1550 hc         1 UZD       0.031700
     52 H29        -12.7210   -23.2790   -26.7830 hc         1 UZD       0.031700
@<TRIPOS>BOND
     1     1     2 2   
     2     2     3 1   
     3     2    16 1   
     4     3     4 1   
     5     4     5 1   
     6     4    24 1   
     7     4    25 1   
     8     5     6 1   
     9     5    10 1   
    10     5    26 1   
    11     6     7 1   
    12     6     8 1   
    13     6    27 1   
    14     7    28 1   
    15     8     9 1   
    16     8    14 1   
    17     8    29 1   
    18     9    30 1   
    19    10    11 1   
    20    11    12 1   
    21    11    14 1   
    22    11    31 1   
    23    12    13 1   
    24    13    32 1   
    25    13    33 1   
    26    13    34 1   
    27    14    15 1   
    28    14    35 1   
    29    15    36 1   
    30    16    17 1   
    31    16    37 1   
    32    17    18 1   
    33    17    38 1   
    34    17    39 1   
    35    18    19 1   
    36    18    40 1   
    37    18    41 1   
    38    19    20 1   
    39    19    42 1   
    40    19    43 1   
    41    20    21 1   
    42    20    44 1   
    43    20    45 1   
    44    21    22 1   
    45    21    46 1   
    46    21    47 1   
    47    22    23 1   
    48    22    48 1   
    49    22    49 1   
    50    23    50 1   
    51    23    51 1   
    52    23    52 1   
@<TRIPOS>SUBSTRUCTURE
     1 UZD         1 TEMP              0 ****  ****    0 ROOT
