@<TRIPOS>MOLECULE
UZD
   52    52     1     0     0
SMALL
bcc


@<TRIPOS>ATOM
      1 O           -7.7550   -30.2620   -29.0230 o          1 UZD      -0.594000
      2 C7          -8.5660   -29.5300   -29.5580 c          1 UZD       0.756100
      3 O1          -8.2370   -28.5250   -30.3750 os         1 UZD      -0.419900
      4 C8          -6.8700   -28.1790   -30.5230 c3         1 UZD       0.159400
      5 C9          -6.3020   -27.4630   -29.3050 c6         1 UZD       0.083100
      6 C14         -4.9880   -26.7630   -29.6720 c6         1 UZD       0.132100
      7 O6          -4.0350   -27.6840   -30.1390 oh         1 UZD      -0.558800
      8 C13         -4.4160   -25.9970   -28.4680 c6         1 UZD       0.160100
      9 O5          -3.5020   -26.8230   -27.7880 oh         1 UZD      -0.570800
     10 O2          -7.2870   -26.5380   -28.8660 os         1 UZD      -0.434600
     11 C10         -6.8550   -25.3420   -28.2800 c6         1 UZD       0.313900
     12 O3          -6.6780   -24.3260   -29.2130 os         1 UZD      -0.420600
     13 C11         -7.8720   -23.8960   -29.8320 c3         1 UZD       0.124700
     14 C12         -5.5480   -25.5610   -27.5310 c6         1 UZD       0.083100
     15 O4          -5.1250   -24.4220   -26.8270 oh         1 UZD      -0.581800
     16 N           -9.9000   -29.6400   -29.4330 ns         1 UZD      -0.565900
     17 C6         -10.8710   -28.6800   -29.9260 c3         1 UZD       0.120000
     18 C5         -10.9630   -27.4070   -29.0920 c3         1 UZD      -0.108400
     19 C4         -11.8560   -26.3610   -29.7450 c3         1 UZD      -0.072400
     20 C3         -11.9930   -25.0930   -28.9110 c3         1 UZD      -0.074400
     21 C2         -12.8080   -24.0110   -29.6100 c3         1 UZD      -0.074400
     22 C1         -12.9380   -22.7120   -28.8190 c3         1 UZD      -0.072400
     23 C          -13.7130   -22.8540   -27.5160 c3         1 UZD      -0.089100
     24 H1          -6.2660   -29.0560   -30.7630 h1         1 UZD       0.064200
     25 H2          -6.8550   -27.5090   -31.3850 h1         1 UZD       0.064200
     26 H3          -6.1110   -28.1930   -28.5070 h1         1 UZD       0.090700
     27 H4          -5.2180   -26.0190   -30.4440 h1         1 UZD       0.052700
     28 H5          -4.1360   -27.7700   -31.0910 ho         1 UZD       0.400000
     29 H6          -3.9120   -25.0980   -28.8450 h1         1 UZD       0.065700
     30 H7          -3.1350   -26.3130   -27.0590 ho         1 UZD       0.408000
     31 H8          -7.6530   -25.0630   -27.5750 h2         1 UZD       0.060700
     32 H9          -7.6350   -23.0170   -30.4300 h1         1 UZD       0.034033
     33 H10         -8.3000   -24.6590   -30.4880 h1         1 UZD       0.034033
     34 H11         -8.6290   -23.6160   -29.0900 h1         1 UZD       0.034033
     35 H12         -5.7340   -26.3980   -26.8420 h1         1 UZD       0.058700
     36 H13         -5.6710   -24.3260   -26.0400 ho         1 UZD       0.409000
     37 H14        -10.2200   -30.3470   -28.7910 hn         1 UZD       0.330500
     38 H15        -10.6450   -28.4330   -30.9640 h1         1 UZD       0.050700
     39 H16        -11.8370   -29.1880   -29.9370 h1         1 UZD       0.050700
     40 H17        -11.3410   -27.6520   -28.0940 hc         1 UZD       0.053200
     41 H18         -9.9620   -26.9880   -28.9570 hc         1 UZD       0.053200
     42 H19        -11.4450   -26.1050   -30.7280 hc         1 UZD       0.037200
     43 H20        -12.8500   -26.7820   -29.9320 hc         1 UZD       0.037200
     44 H21        -12.4480   -25.3480   -27.9480 hc         1 UZD       0.037700
     45 H22        -10.9950   -24.7010   -28.6810 hc         1 UZD       0.037700
     46 H23        -13.8070   -24.3990   -29.8370 hc         1 UZD       0.037200
     47 H24        -12.3430   -23.7920   -30.5760 hc         1 UZD       0.037200
     48 H25        -11.9390   -22.3150   -28.6100 hc         1 UZD       0.036200
     49 H26        -13.4320   -21.9660   -29.4470 hc         1 UZD       0.036200
     50 H27        -13.8310   -21.8890   -27.0200 hc         1 UZD       0.031700
     51 H28        -14.7130   -23.2540   -27.6950 hc         1 UZD       0.031700
     52 H29        -13.2140   -23.5200   -26.8120 hc         1 UZD       0.031700
@<TRIPOS>BOND
     1     1     2 2   
     2     2     3 1   
     3     2    16 1   
     4     3     4 1   
     5     4     5 1   
     6     4    24 1   
     7     4    25 1   
     8     5     6 1   
     9     5    10 1   
    10     5    26 1   
    11     6     7 1   
    12     6     8 1   
    13     6    27 1   
    14     7    28 1   
    15     8     9 1   
    16     8    14 1   
    17     8    29 1   
    18     9    30 1   
    19    10    11 1   
    20    11    12 1   
    21    11    14 1   
    22    11    31 1   
    23    12    13 1   
    24    13    32 1   
    25    13    33 1   
    26    13    34 1   
    27    14    15 1   
    28    14    35 1   
    29    15    36 1   
    30    16    17 1   
    31    16    37 1   
    32    17    18 1   
    33    17    38 1   
    34    17    39 1   
    35    18    19 1   
    36    18    40 1   
    37    18    41 1   
    38    19    20 1   
    39    19    42 1   
    40    19    43 1   
    41    20    21 1   
    42    20    44 1   
    43    20    45 1   
    44    21    22 1   
    45    21    46 1   
    46    21    47 1   
    47    22    23 1   
    48    22    48 1   
    49    22    49 1   
    50    23    50 1   
    51    23    51 1   
    52    23    52 1   
@<TRIPOS>SUBSTRUCTURE
     1 UZD         1 TEMP              0 ****  ****    0 ROOT
