@<TRIPOS>MOLECULE
UZE
   74    78     1     0     0
SMALL
No Charge or Current Charge


@<TRIPOS>ATOM
      1 C10        -46.1820    31.3900    23.3810 ca         1 UZE      -0.133000
      2 C17        -45.0520    35.6220    25.6720 c6         1 UZE       0.143400
      3 C20        -44.1810    36.4100    24.6510 c6         1 UZE      -0.119400
      4 C21        -42.6650    36.1610    24.8340 c6         1 UZE       0.212800
      5 C02        -41.3050    25.9670    23.1370 c6         1 UZE      -0.047000
      6 C03        -39.9180    25.5430    23.7050 c3         1 UZE      -0.083100
      7 C04        -41.1490    26.4490    21.6630 c6         1 UZE      -0.066900
      8 C05        -42.4570    27.0600    21.0970 c6         1 UZE       0.168800
      9 C07        -44.1400    28.8410    21.3520 c3         1 UZE       0.215100
     10 C08        -44.5510    30.1160    22.0850 ca         1 UZE      -0.072300
     11 C09        -45.8120    30.2160    22.7010 ca         1 UZE      -0.105000
     12 C11        -43.6640    31.2050    22.1580 ca         1 UZE      -0.113000
     13 C12        -44.0310    32.3780    22.8390 ca         1 UZE       0.150000
     14 C14        -45.3010    32.4880    23.4640 ca         1 UZE       0.227000
     15 C16        -44.9830    34.0690    25.4120 c6         1 UZE       0.183800
     16 C18        -44.5370    35.9770    27.0930 c6         1 UZE      -0.119400
     17 C19        -43.0220    35.7130    27.2650 c6         1 UZE       0.212800
     18 C23        -40.9070    36.8530    26.4880 ca         1 UZE       0.403900
     19 C25        -38.9820    36.6490    27.7200 ca         1 UZE       0.192900
     20 C27        -38.9850    38.2070    26.0570 ca         1 UZE       0.402900
     21 C29        -38.7650    40.0140    24.2550 c3         1 UZE       0.222100
     22 C30        -40.3000    37.8650    25.7350 ca         1 UZE      -0.367000
     23 C32        -47.1070    34.1770    24.0940 c6         1 UZE       0.098800
     24 C33        -47.3970    35.5780    24.7210 c          1 UZE       0.572000
     25 C35        -43.1710    27.7440    23.3510 c6         1 UZE       0.168800
     26 C36        -41.8810    27.1490    23.9730 c6         1 UZE      -0.066900
     27 F13        -43.1520    33.4080    22.8660 f          1 UZE      -0.180000
     28 N06        -42.9520    28.1800    21.9420 n3         1 UZE      -0.721600
     29 N15        -45.6930    33.6640    24.1630 nh         1 UZE      -0.768400
     30 N22        -42.2350    36.4480    26.2320 nh         1 UZE      -0.763300
     31 N24        -40.2470    36.2440    27.4930 nb         1 UZE      -0.296000
     32 N26        -38.3140    37.6040    27.0470 nb         1 UZE      -0.291000
     33 N28        -38.2890    39.1920    25.3810 nu         1 UZE      -0.937100
     34 N31        -46.4390    36.1090    25.5560 ns         1 UZE      -0.502900
     35 H1         -47.1570    31.4340    23.8570 ha         1 UZE       0.119000
     36 H2         -44.3710    37.4860    24.7580 hc         1 UZE       0.062950
     37 H3         -44.4710    36.1510    23.6240 hc         1 UZE       0.062950
     38 H4         -42.4210    35.1200    24.5780 h1         1 UZE       0.066450
     39 H5         -42.1250    36.7910    24.1130 h1         1 UZE       0.066450
     40 H6         -42.3350    24.3650    24.2610 hc         1 UZE       0.033200
     41 H7         -43.2400    24.9040    22.8470 hc         1 UZE       0.033200
     42 H8         -41.8230    23.8740    22.6420 hc         1 UZE       0.033200
     43 H9         -39.9950    25.2110    24.7470 hc         1 UZE       0.033200
     44 H10        -39.4810    24.7190    23.1260 hc         1 UZE       0.033200
     45 H11        -39.2030    26.3750    23.6790 hc         1 UZE       0.033200
     46 H12        -40.8260    25.6170    21.0220 hc         1 UZE       0.046450
     47 H13        -40.3550    27.2060    21.6030 hc         1 UZE       0.046450
     48 H14        -42.2570    27.4190    20.0760 h1         1 UZE       0.030700
     49 H15        -43.2240    26.2760    21.0120 h1         1 UZE       0.030700
     50 H16        -43.9320    29.1110    20.3070 h1         1 UZE       0.039700
     51 H17        -44.9880    28.1420    21.3350 h1         1 UZE       0.039700
     52 H18        -46.5070    29.3800    22.6570 ha         1 UZE       0.117000
     53 H19        -42.6860    31.1410    21.6890 ha         1 UZE       0.147000
     54 H20        -45.4470    33.5520    26.2660 h1         1 UZE       0.052200
     55 H21        -43.9360    33.7380    25.3820 h1         1 UZE       0.052200
     56 H22        -44.7290    37.0380    27.3030 hc         1 UZE       0.062950
     57 H23        -45.0950    35.4110    27.8500 hc         1 UZE       0.062950
     58 H24        -42.8180    34.6330    27.2070 h1         1 UZE       0.066450
     59 H25        -42.7370    36.0420    28.2760 h1         1 UZE       0.066450
     60 H26        -38.4480    36.1540    28.5300 h5         1 UZE       0.039100
     61 H27        -37.9810    40.7110    23.9300 h1         1 UZE       0.038033
     62 H28        -39.0380    39.3780    23.4030 h1         1 UZE       0.038033
     63 H29        -39.6460    40.5990    24.5510 h1         1 UZE       0.038033
     64 H30        -40.8370    38.3750    24.9460 ha         1 UZE       0.128000
     65 H31        -47.4320    34.2400    23.0460 h1         1 UZE       0.067700
     66 H32        -47.7830    33.4840    24.6150 h1         1 UZE       0.067700
     67 H33        -43.4840    28.5960    23.9720 h1         1 UZE       0.030700
     68 H34        -43.9810    27.0020    23.4000 h1         1 UZE       0.030700
     69 H35        -41.1310    27.9480    24.0500 hc         1 UZE       0.046450
     70 H36        -42.0870    26.8230    25.0010 hc         1 UZE       0.046450
     71 H38        -37.3350    39.3510    25.7120 hn         1 UZE       0.507000
     72 H39        -46.6710    36.9970    25.9800 hn         1 UZE       0.315500
     73 O34        -48.4450    36.1780    24.5270 o          1 UZE      -0.568000
     74 C01        -42.2300    24.7090    23.2250 c3         1 UZE      -0.083100
@<TRIPOS>BOND
     1     1    11 ar  
     2     1    14 ar  
     3     1    35 1   
     4     2     3 1   
     5     2    15 1   
     6     2    16 1   
     7     2    34 1   
     8     3     4 1   
     9     3    36 1   
    10     3    37 1   
    11     4    30 1   
    12     4    38 1   
    13     4    39 1   
    14     5     6 1   
    15     5     7 1   
    16     5    26 1   
    17     5    74 1   
    18     6    43 1   
    19     6    44 1   
    20     6    45 1   
    21     7     8 1   
    22     7    46 1   
    23     7    47 1   
    24     8    28 1   
    25     8    48 1   
    26     8    49 1   
    27     9    10 1   
    28     9    28 1   
    29     9    50 1   
    30     9    51 1   
    31    10    11 ar  
    32    10    12 ar  
    33    11    52 1   
    34    12    13 ar  
    35    12    53 1   
    36    13    14 ar  
    37    13    27 1   
    38    14    29 1   
    39    15    29 1   
    40    15    54 1   
    41    15    55 1   
    42    16    17 1   
    43    16    56 1   
    44    16    57 1   
    45    17    30 1   
    46    17    58 1   
    47    17    59 1   
    48    18    22 ar  
    49    18    30 1   
    50    18    31 ar  
    51    19    31 ar  
    52    19    32 ar  
    53    19    60 1   
    54    20    22 ar  
    55    20    32 ar  
    56    20    33 1   
    57    21    33 1   
    58    21    61 1   
    59    21    62 1   
    60    21    63 1   
    61    22    64 1   
    62    23    24 1   
    63    23    29 1   
    64    23    65 1   
    65    23    66 1   
    66    24    34 1   
    67    24    73 2   
    68    25    26 1   
    69    25    28 1   
    70    25    67 1   
    71    25    68 1   
    72    26    69 1   
    73    26    70 1   
    74    33    71 1   
    75    34    72 1   
    76    40    74 1   
    77    41    74 1   
    78    42    74 1   
@<TRIPOS>SUBSTRUCTURE
     1 UZE         1 TEMP              0 ****  ****    0 ROOT
