@<TRIPOS>MOLECULE
UZE
   74    78     1     0     0
SMALL
bcc


@<TRIPOS>ATOM
      1 C10        -46.1600    31.5770    23.3770 ca         1 UZE      -0.151000
      2 C17        -44.3250    35.4590    25.5930 c6         1 UZE       0.143400
      3 C20        -43.2490    36.0100    24.6420 c6         1 UZE      -0.119400
      4 C21        -41.8440    35.5690    25.0400 c6         1 UZE       0.212800
      5 C02        -41.5630    25.8360    22.8870 c6         1 UZE      -0.047000
      6 C03        -40.1280    25.4940    23.2800 c3         1 UZE      -0.083100
      7 C04        -41.5850    26.3490    21.4420 c6         1 UZE      -0.066900
      8 C05        -42.9190    26.9600    21.0420 c6         1 UZE       0.168800
      9 C07        -44.4950    28.7060    21.5120 c3         1 UZE       0.215100
     10 C08        -44.7160    30.0120    22.2270 ca         1 UZE      -0.072300
     11 C09        -45.9570    30.3580    22.7380 ca         1 UZE      -0.123000
     12 C11        -43.6720    30.9280    22.3530 ca         1 UZE      -0.131000
     13 C12        -43.8960    32.1370    22.9670 ca         1 UZE       0.114900
     14 C14        -45.1290    32.5010    23.5160 ca         1 UZE       0.088600
     15 C16        -44.5710    33.9670    25.3760 c6         1 UZE       0.183800
     16 C18        -43.9090    35.7160    27.0480 c6         1 UZE      -0.119400
     17 C19        -42.4750    35.2760    27.3330 c6         1 UZE       0.212800
     18 C23        -40.9550    37.0990    26.7500 ca         1 UZE       0.732200
     19 C25        -40.2750    38.5070    28.3940 ca         1 UZE       0.718900
     20 C27        -39.7480    39.1060    26.2880 ca         1 UZE       0.731200
     21 C29        -39.1590    39.9040    24.0360 c3         1 UZE       0.222100
     22 C30        -40.3860    37.9600    25.8070 ca         1 UZE      -0.515600
     23 C32        -46.6200    34.2720    24.2060 c6         1 UZE       0.098800
     24 C33        -46.6590    35.7040    24.6900 c          1 UZE       0.714500
     25 C35        -43.4060    27.5440    23.3120 c6         1 UZE       0.168800
     26 C36        -42.0890    26.9560    23.7930 c6         1 UZE      -0.066900
     27 F13        -42.8840    33.0200    23.0320 f          1 UZE      -0.144900
     28 N06        -43.2920    28.0310    21.9480 n3         1 UZE      -0.721600
     29 N15        -45.2760    33.7570    24.1230 nh         1 UZE      -0.630000
     30 N22        -41.5560    35.9250    26.4150 nh         1 UZE      -0.763300
     31 N24        -40.9000    37.3940    28.0620 nb         1 UZE      -0.822000
     32 N26        -39.6900    39.3830    27.6060 nb         1 UZE      -0.817000
     33 N28        -39.1630    39.9980    25.4710 nu         1 UZE      -0.881900
     34 N31        -45.5820    36.1560    25.3500 ns         1 UZE      -0.569900
     35 H1         -47.1420    31.7970    23.7750 ha         1 UZE       0.137000
     36 H2         -43.2930    37.1030    24.6620 hc         1 UZE       0.062950
     37 H3         -43.4670    35.7000    23.6190 hc         1 UZE       0.062950
     38 H4         -41.7380    34.4860    24.9510 h1         1 UZE       0.066450
     39 H5         -41.1050    35.9910    24.3630 h1         1 UZE       0.066450
     40 H6         -42.3920    24.2110    24.0610 hc         1 UZE       0.033200
     41 H7         -43.4670    24.7410    22.7740 hc         1 UZE       0.033200
     42 H8         -42.0480    23.7790    22.3860 hc         1 UZE       0.033200
     43 H9         -40.0760    25.1440    24.3140 hc         1 UZE       0.033200
     44 H10        -39.7210    24.7060    22.6430 hc         1 UZE       0.033200
     45 H11        -39.4770    26.3660    23.1900 hc         1 UZE       0.033200
     46 H12        -41.3350    25.5390    20.7510 hc         1 UZE       0.046450
     47 H13        -40.8080    27.1130    21.3240 hc         1 UZE       0.046450
     48 H14        -42.8360    27.3740    20.0330 h1         1 UZE       0.030700
     49 H15        -43.6990    26.1800    20.9910 h1         1 UZE       0.030700
     50 H16        -44.3970    28.9050    20.4400 h1         1 UZE       0.039700
     51 H17        -45.3930    28.0750    21.6230 h1         1 UZE       0.039700
     52 H18        -46.7850    29.6650    22.6530 ha         1 UZE       0.135000
     53 H19        -42.6890    30.7010    21.9590 ha         1 UZE       0.165000
     54 H20        -45.1570    33.5690    26.2190 h1         1 UZE       0.052200
     55 H21        -43.6290    33.4250    25.3740 h1         1 UZE       0.052200
     56 H22        -43.9870    36.7880    27.2580 hc         1 UZE       0.062950
     57 H23        -44.5990    35.2090    27.7270 hc         1 UZE       0.062950
     58 H24        -42.3680    34.1940    27.2160 h1         1 UZE       0.066450
     59 H25        -42.2070    35.5150    28.3570 h1         1 UZE       0.066450
     60 H26        -40.2380    38.7270    29.4570 h5         1 UZE       0.039100
     61 H27        -38.6260    40.7620    23.6340 h1         1 UZE       0.038033
     62 H28        -38.6520    39.0010    23.6880 h1         1 UZE       0.038033
     63 H29        -40.1690    39.9080    23.6190 h1         1 UZE       0.038033
     64 H30        -40.4380    37.7710    24.7460 ha         1 UZE       0.146000
     65 H31        -47.0940    34.2420    23.2240 h1         1 UZE       0.067700
     66 H32        -47.2610    33.6950    24.8930 h1         1 UZE       0.067700
     67 H33        -43.6840    28.3770    23.9630 h1         1 UZE       0.030700
     68 H34        -44.2170    26.8000    23.4030 h1         1 UZE       0.030700
     69 H35        -41.3460    27.7590    23.8380 hc         1 UZE       0.046450
     70 H36        -42.2100    26.5840    24.8150 hc         1 UZE       0.046450
     71 H38        -38.7710    40.8150    25.9070 hn         1 UZE       0.451800
     72 H39        -45.6210    37.1240    25.6400 hn         1 UZE       0.315500
     73 O34        -47.6610    36.3820    24.5130 o          1 UZE      -0.643500
     74 C01        -42.4200    24.5770    23.0320 c3         1 UZE      -0.083100
@<TRIPOS>BOND
     1     1    11 ar  
     2     1    14 ar  
     3     1    35 1   
     4     2     3 1   
     5     2    15 1   
     6     2    16 1   
     7     2    34 1   
     8     3     4 1   
     9     3    36 1   
    10     3    37 1   
    11     4    30 1   
    12     4    38 1   
    13     4    39 1   
    14     5     6 1   
    15     5     7 1   
    16     5    26 1   
    17     5    74 1   
    18     6    43 1   
    19     6    44 1   
    20     6    45 1   
    21     7     8 1   
    22     7    46 1   
    23     7    47 1   
    24     8    28 1   
    25     8    48 1   
    26     8    49 1   
    27     9    10 1   
    28     9    28 1   
    29     9    50 1   
    30     9    51 1   
    31    10    11 ar  
    32    10    12 ar  
    33    11    52 1   
    34    12    13 ar  
    35    12    53 1   
    36    13    14 ar  
    37    13    27 1   
    38    14    29 1   
    39    15    29 1   
    40    15    54 1   
    41    15    55 1   
    42    16    17 1   
    43    16    56 1   
    44    16    57 1   
    45    17    30 1   
    46    17    58 1   
    47    17    59 1   
    48    18    22 ar  
    49    18    30 1   
    50    18    31 ar  
    51    19    31 ar  
    52    19    32 ar  
    53    19    60 1   
    54    20    22 ar  
    55    20    32 ar  
    56    20    33 1   
    57    21    33 1   
    58    21    61 1   
    59    21    62 1   
    60    21    63 1   
    61    22    64 1   
    62    23    24 1   
    63    23    29 1   
    64    23    65 1   
    65    23    66 1   
    66    24    34 1   
    67    24    73 2   
    68    25    26 1   
    69    25    28 1   
    70    25    67 1   
    71    25    68 1   
    72    26    69 1   
    73    26    70 1   
    74    33    71 1   
    75    34    72 1   
    76    40    74 1   
    77    41    74 1   
    78    42    74 1   
@<TRIPOS>SUBSTRUCTURE
     1 UZE         1 TEMP              0 ****  ****    0 ROOT
