@<TRIPOS>MOLECULE
UZF
   34    36     1     0     0
SMALL
No Charge or Current Charge


@<TRIPOS>ATOM
      1 N1          10.2330   -14.9240    22.8330 n          1 UZF      -0.075000
      2 C4           8.9540   -16.2020    26.1410 ca         1 UZF      -0.107000
      3 C5           9.2530   -15.3210    25.0830 ca         1 UZF      -0.077800
      4 C6           9.9510   -15.7860    23.9550 ca         1 UZF      -0.044500
      5 C7           8.8380   -13.8730    25.1560 c3         1 UZF      -0.023600
      6 C8          10.0740   -12.9980    25.3730 c3         1 UZF      -0.023600
      7 C10         11.0990   -13.7730    23.0610 ca         1 UZF      -0.044500
      8 C13         12.9900   -12.4630    22.1820 ca         1 UZF      -0.104500
      9 C15          9.4870   -15.0590    21.6220 c          1 UZF       0.610100
     10 C1          10.3400   -17.1410    23.8950 ca         1 UZF      -0.095500
     11 C11         12.0340   -11.8940    24.3290 ca         1 UZF      -0.107000
     12 C12         12.9790   -11.6570    23.3230 ca         1 UZF      -0.104000
     13 C14         12.0620   -13.5060    22.0570 ca         1 UZF      -0.095500
     14 C16          8.5120   -16.2600    21.4990 c3         1 UZF      -0.014400
     15 C2          10.0410   -18.0180    24.9500 ca         1 UZF      -0.104500
     16 C3           9.3460   -17.5480    26.0750 ca         1 UZF      -0.104000
     17 C9          11.0860   -12.9350    24.2230 ca         1 UZF      -0.077800
     18 O1           9.5750   -14.2400    20.7090 o          1 UZF      -0.570100
     19 S1           7.4870   -16.2500    19.9300 sh         1 UZF      -0.411800
     20 H1           8.4180   -15.8440    27.0180 ha         1 UZF       0.114000
     21 H2           8.3130   -13.5610    24.2450 hc         1 UZF       0.052450
     22 H3           8.1370   -13.7120    25.9850 hc         1 UZF       0.052450
     23 H4          10.5830   -13.3370    26.2840 hc         1 UZF       0.052450
     24 H5           9.7190   -11.9830    25.5910 hc         1 UZF       0.052450
     25 H6          13.7230   -12.2880    21.3970 ha         1 UZF       0.119500
     26 H7          10.8880   -17.5140    23.0320 ha         1 UZF       0.126500
     27 H8          12.0310   -11.2470    25.2040 ha         1 UZF       0.114000
     28 H9          13.6980   -10.8470    23.4270 ha         1 UZF       0.116500
     29 H10         12.1180   -14.1370    21.1730 ha         1 UZF       0.126500
     30 H11          7.8390   -16.2410    22.3640 h1         1 UZF       0.090700
     31 H12          9.0950   -17.1870    21.5300 h1         1 UZF       0.090700
     32 H13         10.3500   -19.0600    24.8970 ha         1 UZF       0.119500
     33 H14          9.1140   -18.2250    26.8950 ha         1 UZF       0.116500
     34 H15          7.2100   -14.9210    19.9430 hs         1 UZF       0.228800
@<TRIPOS>BOND
     1     1     4 1   
     2     1     7 1   
     3     1     9 1   
     4     2     3 ar  
     5     2    16 ar  
     6     2    20 1   
     7     3     4 ar  
     8     3     5 1   
     9     4    10 ar  
    10     5     6 1   
    11     5    21 1   
    12     5    22 1   
    13     6    17 1   
    14     6    23 1   
    15     6    24 1   
    16     7    13 ar  
    17     7    17 ar  
    18     8    12 ar  
    19     8    13 ar  
    20     8    25 1   
    21     9    14 1   
    22     9    18 2   
    23    10    15 ar  
    24    10    26 1   
    25    11    12 ar  
    26    11    17 ar  
    27    11    27 1   
    28    12    28 1   
    29    13    29 1   
    30    14    19 1   
    31    14    30 1   
    32    14    31 1   
    33    15    16 ar  
    34    15    32 1   
    35    16    33 1   
    36    19    34 1   
@<TRIPOS>SUBSTRUCTURE
     1 UZF         1 TEMP              0 ****  ****    0 ROOT
