@<TRIPOS>MOLECULE
UZF
   34    36     1     0     0
SMALL
abcg2


@<TRIPOS>ATOM
      1 N1          10.1530   -14.8760    22.8300 n          1 UZF      -0.075000
      2 C4           9.0760   -16.2620    26.0790 ca         1 UZF      -0.107000
      3 C5           9.2440   -15.3770    25.0170 ca         1 UZF      -0.077800
      4 C6           9.9700   -15.8090    23.9060 ca         1 UZF      -0.044500
      5 C7           8.7260   -13.9690    25.0320 c3         1 UZF      -0.023600
      6 C8           9.8540   -12.9370    25.1620 c3         1 UZF      -0.023600
      7 C10         11.1000   -13.8180    23.0540 ca         1 UZF      -0.044500
      8 C13         13.1430   -12.7430    22.3410 ca         1 UZF      -0.104500
      9 C15          9.3610   -14.8610    21.7150 c          1 UZF       0.610100
     10 C1          10.5300   -17.0780    23.8510 ca         1 UZF      -0.095500
     11 C11         11.9600   -11.9560    24.2790 ca         1 UZF      -0.107000
     12 C12         13.0290   -11.8500    23.4040 ca         1 UZF      -0.104000
     13 C14         12.1820   -13.7260    22.1770 ca         1 UZF      -0.095500
     14 C16          8.3190   -15.9730    21.6500 c3         1 UZF      -0.014400
     15 C2          10.3440   -17.9540    24.9160 ca         1 UZF      -0.104500
     16 C3           9.6150   -17.5440    26.0280 ca         1 UZF      -0.104000
     17 C9          10.9660   -12.9330    24.1290 ca         1 UZF      -0.077800
     18 O1           9.4510   -13.9920    20.8600 o          1 UZF      -0.570100
     19 S1           7.4800   -16.1220    20.0490 sh         1 UZF      -0.411800
     20 H1           8.5150   -15.9430    26.9500 ha         1 UZF       0.114000
     21 H2           8.1490   -13.7730    24.1250 hc         1 UZF       0.052450
     22 H3           8.0480   -13.8370    25.8750 hc         1 UZF       0.052450
     23 H4          10.3220   -13.0660    26.1430 hc         1 UZF       0.052450
     24 H5           9.4080   -11.9400    25.1730 hc         1 UZF       0.052450
     25 H6          13.9760   -12.6780    21.6530 ha         1 UZF       0.119500
     26 H7          11.0980   -17.3740    22.9780 ha         1 UZF       0.126500
     27 H8          11.8790   -11.2620    25.1080 ha         1 UZF       0.114000
     28 H9          13.7720   -11.0760    23.5510 ha         1 UZF       0.116500
     29 H10         12.2540   -14.4380    21.3660 ha         1 UZF       0.126500
     30 H11          7.5910   -15.8140    22.4470 h1         1 UZF       0.090700
     31 H12          8.7770   -16.9430    21.8300 h1         1 UZF       0.090700
     32 H13         10.7700   -18.9480    24.8770 ha         1 UZF       0.119500
     33 H14          9.4710   -18.2220    26.8600 ha         1 UZF       0.116500
     34 H15          7.0410   -14.8560    19.9660 hs         1 UZF       0.228800
@<TRIPOS>BOND
     1     1     4 1   
     2     1     7 1   
     3     1     9 1   
     4     2     3 ar  
     5     2    16 ar  
     6     2    20 1   
     7     3     4 ar  
     8     3     5 1   
     9     4    10 ar  
    10     5     6 1   
    11     5    21 1   
    12     5    22 1   
    13     6    17 1   
    14     6    23 1   
    15     6    24 1   
    16     7    13 ar  
    17     7    17 ar  
    18     8    12 ar  
    19     8    13 ar  
    20     8    25 1   
    21     9    14 1   
    22     9    18 2   
    23    10    15 ar  
    24    10    26 1   
    25    11    12 ar  
    26    11    17 ar  
    27    11    27 1   
    28    12    28 1   
    29    13    29 1   
    30    14    19 1   
    31    14    30 1   
    32    14    31 1   
    33    15    16 ar  
    34    15    32 1   
    35    16    33 1   
    36    19    34 1   
@<TRIPOS>SUBSTRUCTURE
     1 UZF         1 TEMP              0 ****  ****    0 ROOT
