@<TRIPOS>MOLECULE
UZG
   49    52     1     0     0
SMALL
abcg2


@<TRIPOS>ATOM
      1 C10        -21.6570   -37.4060     2.9350 c3         1 UZG       0.143900
      2 C13        -24.6910   -37.4350    -2.6550 ca         1 UZG      -0.167000
      3 C15        -23.2950   -35.7730    -3.7180 ca         1 UZG      -0.156900
      4 C17        -22.3040   -37.4840    -2.3200 ca         1 UZG      -0.167000
      5 C20        -22.2440   -32.9450    -5.5910 ca         1 UZG       0.087400
      6 C21        -21.4080   -31.9560    -6.1080 ca         1 UZG      -0.056000
      7 C22        -21.9570   -31.0230    -6.9660 ca         1 UZG      -0.110000
      8 C24        -24.1600   -32.0370    -6.8190 ca         1 UZG      -0.094000
      9 C01        -19.2760   -42.1490     1.9680 c3         1 UZG       0.143900
     10 C03        -20.8590   -40.5380     1.2680 ca         1 UZG       0.113100
     11 C04        -21.2200   -41.2600     0.1450 ca         1 UZG      -0.164000
     12 C05        -22.1850   -40.7750    -0.7410 ca         1 UZG      -0.108000
     13 C06        -22.7880   -39.5690    -0.4780 ca         1 UZG       0.093100
     14 C07        -22.4450   -38.8200     0.6480 ca         1 UZG      -0.194000
     15 C08        -21.4820   -39.2950     1.5200 ca         1 UZG       0.127100
     16 C12        -23.5670   -38.0190    -2.0770 ca         1 UZG       0.155100
     17 C14        -24.5520   -36.3260    -3.4660 ca         1 UZG      -0.048000
     18 C16        -22.1800   -36.3720    -3.1330 ca         1 UZG      -0.048000
     19 C18        -23.1150   -34.5990    -4.5640 cc         1 UZG       0.490400
     20 C23        -23.3180   -31.0560    -7.3290 ca         1 UZG      -0.181900
     21 C25        -23.6010   -32.9630    -5.9540 ca         1 UZG      -0.087200
     22 C27        -23.8690   -30.0540    -8.2840 ce         1 UZG       0.663800
     23 N19        -21.9750   -33.9730    -4.7290 nd         1 UZG      -0.582100
     24 N26        -24.1250   -34.0290    -5.2760 na         1 UZG      -0.308600
     25 N28        -24.7820   -30.2940    -9.1470 n2         1 UZG      -0.848100
     26 N29        -23.2920   -28.8200    -8.2180 nv         1 UZG      -1.033200
     27 O09        -21.0770   -38.6590     2.6310 os         1 UZG      -0.318100
     28 O11        -23.7850   -39.1150    -1.3120 os         1 UZG      -0.247200
     29 H1         -21.1950   -37.0690     3.8590 h1         1 UZG       0.042700
     30 H2         -21.4620   -36.6660     2.1550 h1         1 UZG       0.042700
     31 H3         -22.7370   -37.4820     3.0880 h1         1 UZG       0.042700
     32 H5         -21.4170   -37.9270    -1.8870 ha         1 UZG       0.133000
     33 H6         -20.3580   -31.9230    -5.8480 ha         1 UZG       0.132000
     34 H7         -21.3160   -30.2610    -7.3890 ha         1 UZG       0.126000
     35 H8         -25.2130   -32.0650    -7.0690 ha         1 UZG       0.122000
     36 H9         -18.5870   -42.2700     2.8000 h1         1 UZG       0.041700
     37 H10        -19.9680   -42.9950     1.9600 h1         1 UZG       0.041700
     38 H11        -18.7050   -42.1530     1.0360 h1         1 UZG       0.041700
     39 H12        -20.7590   -42.2140    -0.0700 ha         1 UZG       0.125000
     40 H13        -22.4580   -41.3520    -1.6150 ha         1 UZG       0.132000
     41 H14        -22.9420   -37.8760     0.8270 ha         1 UZG       0.134000
     42 H15        -25.4500   -35.8940    -3.8880 ha         1 UZG       0.123500
     43 H16        -21.1960   -35.9640    -3.3190 ha         1 UZG       0.123500
     44 H18        -25.0810   -34.3420    -5.3270 hn         1 UZG       0.358000
     45 H19        -25.0270   -31.2760    -9.1450 hn         1 UZG       0.386400
     46 H20        -22.9330   -28.5070    -7.3320 hn         1 UZG       0.469500
     47 H21        -23.7210   -28.0960    -8.7720 hn         1 UZG       0.469500
     48 O02        -19.9430   -40.9210     2.1750 os         1 UZG      -0.317100
     49 H4         -25.6720   -37.8510    -2.4650 ha         1 UZG       0.133000
@<TRIPOS>BOND
     1     1    27 1   
     2     1    29 1   
     3     1    30 1   
     4     1    31 1   
     5     2    16 ar  
     6     2    17 ar  
     7     2    49 1   
     8     3    17 ar  
     9     3    18 ar  
    10     3    19 1   
    11     4    16 ar  
    12     4    18 ar  
    13     4    32 1   
    14     5     6 ar  
    15     5    21 ar  
    16     5    23 1   
    17     6     7 ar  
    18     6    33 1   
    19     7    20 ar  
    20     7    34 1   
    21     8    20 ar  
    22     8    21 ar  
    23     8    35 1   
    24     9    36 1   
    25     9    37 1   
    26     9    38 1   
    27     9    48 1   
    28    10    11 ar  
    29    10    15 ar  
    30    10    48 1   
    31    11    12 ar  
    32    11    39 1   
    33    12    13 ar  
    34    12    40 1   
    35    13    14 ar  
    36    13    28 1   
    37    14    15 ar  
    38    14    41 1   
    39    15    27 1   
    40    16    28 1   
    41    17    42 1   
    42    18    43 1   
    43    19    23 2   
    44    19    24 1   
    45    20    22 1   
    46    21    24 1   
    47    22    25 2   
    48    22    26 1   
    49    24    44 1   
    50    25    45 1   
    51    26    46 1   
    52    26    47 1   
@<TRIPOS>SUBSTRUCTURE
     1 UZG         1 TEMP              0 ****  ****    0 ROOT
