@<TRIPOS>MOLECULE
UZG
   49    52     1     0     0
SMALL
No Charge or Current Charge


@<TRIPOS>ATOM
      1 C10        -21.4820   -36.9090     2.2090 c3         1 UZG       0.143900
      2 C13        -24.4210   -37.7650    -3.0060 ca         1 UZG      -0.167000
      3 C15        -23.0810   -35.9550    -3.9690 ca         1 UZG      -0.156900
      4 C17        -22.0070   -37.7870    -2.7470 ca         1 UZG      -0.167000
      5 C20        -22.2220   -32.9350    -5.7270 ca         1 UZG       0.087400
      6 C21        -21.4210   -31.9260    -6.2730 ca         1 UZG      -0.056000
      7 C22        -22.0510   -30.8730    -6.9740 ca         1 UZG      -0.110000
      8 C24        -24.2440   -31.8800    -6.5630 ca         1 UZG      -0.094000
      9 C01        -19.7020   -42.1960     2.8390 c3         1 UZG       0.143900
     10 C03        -20.9920   -40.5620     1.4970 ca         1 UZG       0.113100
     11 C04        -21.3520   -41.5400     0.5420 ca         1 UZG      -0.164000
     12 C05        -22.1490   -41.1880    -0.5610 ca         1 UZG      -0.108000
     13 C06        -22.5860   -39.8660    -0.7250 ca         1 UZG       0.093100
     14 C07        -22.2470   -38.8870     0.2270 ca         1 UZG      -0.194000
     15 C08        -21.4440   -39.2280     1.3390 ca         1 UZG       0.127100
     16 C12        -23.2620   -38.3730    -2.5050 ca         1 UZG       0.155100
     17 C14        -24.3360   -36.5630    -3.7300 ca         1 UZG      -0.048000
     18 C16        -21.9180   -36.5850    -3.4700 ca         1 UZG      -0.048000
     19 C18        -22.9760   -34.6970    -4.7250 cc         1 UZG       0.490400
     20 C23        -23.4690   -30.8250    -7.1160 ca         1 UZG      -0.181900
     21 C25        -23.5750   -32.8990    -5.8770 ca         1 UZG      -0.087200
     22 C27        -24.1240   -29.7260    -7.8950 ce         1 UZG       0.663800
     23 N19        -21.8210   -34.0560    -5.0070 nd         1 UZG      -0.582100
     24 N26        -24.0660   -34.0030    -5.2510 na         1 UZG      -0.308600
     25 N28        -25.2730   -29.8310    -8.4220 n2         1 UZG      -0.848100
     26 N29        -23.5310   -28.5200    -7.9090 nv         1 UZG      -1.033200
     27 O09        -21.0820   -38.2890     2.2920 os         1 UZG      -0.318100
     28 O11        -23.3760   -39.5560    -1.8090 os         1 UZG      -0.247200
     29 H1         -21.0810   -36.3460     3.0600 h1         1 UZG       0.042700
     30 H2         -21.1030   -36.4480     1.2880 h1         1 UZG       0.042700
     31 H3         -22.5760   -36.8180     2.2260 h1         1 UZG       0.042700
     32 H5         -21.1010   -38.2620    -2.3810 ha         1 UZG       0.133000
     33 H6         -20.3400   -31.9570    -6.1640 ha         1 UZG       0.132000
     34 H7         -21.4260   -30.0990    -7.4170 ha         1 UZG       0.126000
     35 H8         -25.3280   -31.8990    -6.6480 ha         1 UZG       0.122000
     36 H9         -19.1060   -42.2120     3.7590 h1         1 UZG       0.041700
     37 H10        -20.5260   -42.9110     2.9550 h1         1 UZG       0.041700
     38 H11        -19.0600   -42.5260     2.0120 h1         1 UZG       0.041700
     39 H12        -21.0260   -42.5720     0.6360 ha         1 UZG       0.125000
     40 H13        -22.4270   -41.9420    -1.2950 ha         1 UZG       0.132000
     41 H14        -22.6150   -37.8750     0.0920 ha         1 UZG       0.134000
     42 H15        -25.2550   -36.1140    -4.1010 ha         1 UZG       0.123500
     43 H16        -20.9360   -36.1480    -3.6430 ha         1 UZG       0.123500
     44 H18        -25.0340   -34.2790    -5.1740 hn         1 UZG       0.358000
     45 H19        -25.5560   -30.8170    -8.3590 hn         1 UZG       0.386400
     46 H20        -22.8970   -28.3470    -7.1380 hn         1 UZG       0.469500
     47 H21        -24.1500   -27.7580    -8.1530 hn         1 UZG       0.469500
     48 O02        -20.2060   -40.8700     2.5960 os         1 UZG      -0.317100
     49 H4         -25.3900   -38.2250    -2.8290 ha         1 UZG       0.133000
@<TRIPOS>BOND
     1     1    27 1   
     2     1    29 1   
     3     1    30 1   
     4     1    31 1   
     5     2    16 ar  
     6     2    17 ar  
     7     2    49 1   
     8     3    17 ar  
     9     3    18 ar  
    10     3    19 1   
    11     4    16 ar  
    12     4    18 ar  
    13     4    32 1   
    14     5     6 ar  
    15     5    21 ar  
    16     5    23 1   
    17     6     7 ar  
    18     6    33 1   
    19     7    20 ar  
    20     7    34 1   
    21     8    20 ar  
    22     8    21 ar  
    23     8    35 1   
    24     9    36 1   
    25     9    37 1   
    26     9    38 1   
    27     9    48 1   
    28    10    11 ar  
    29    10    15 ar  
    30    10    48 1   
    31    11    12 ar  
    32    11    39 1   
    33    12    13 ar  
    34    12    40 1   
    35    13    14 ar  
    36    13    28 1   
    37    14    15 ar  
    38    14    41 1   
    39    15    27 1   
    40    16    28 1   
    41    17    42 1   
    42    18    43 1   
    43    19    23 2   
    44    19    24 1   
    45    20    22 1   
    46    21    24 1   
    47    22    25 2   
    48    22    26 1   
    49    24    44 1   
    50    25    45 1   
    51    26    46 1   
    52    26    47 1   
@<TRIPOS>SUBSTRUCTURE
     1 UZG         1 TEMP              0 ****  ****    0 ROOT
