@<TRIPOS>MOLECULE
UZH
   74    78     1     0     0
SMALL
No Charge or Current Charge


@<TRIPOS>ATOM
      1 C10         14.9060   -21.6440   -14.5100 ca         1 UZH      -0.183000
      2 N12         12.8870   -22.3660   -13.3360 nh         1 UZH      -0.797400
      3 C13         13.0260   -21.5710   -12.0790 c6         1 UZH       0.199800
      4 C15         11.7610   -19.5050   -12.8970 c6         1 UZH      -0.100900
      5 C17         11.9040   -19.9660   -10.4400 c6         1 UZH      -0.100900
      6 C20         10.2980   -16.5840   -10.9860 ca         1 UZH       0.419900
      7 C22         10.3360   -14.7630    -9.5920 ca         1 UZH       0.197900
      8 C24          9.0450   -14.6040   -11.4610 ca         1 UZH       0.406900
      9 C26          7.5320   -14.2020   -13.4900 c3         1 UZH       0.222100
     10 C02         21.4280   -24.2080   -14.9930 c6         1 UZH      -0.047000
     11 C03         22.6890   -23.7980   -14.1740 c3         1 UZH      -0.083100
     12 C04         20.1640   -24.1480   -14.0830 c6         1 UZH      -0.066900
     13 C05         18.8490   -24.3620   -14.8760 c6         1 UZH       0.168300
     14 C08         16.2190   -23.2220   -15.8240 ca         1 UZH      -0.156300
     15 C09         16.0110   -21.9200   -15.3330 ca         1 UZH      -0.032000
     16 C11         13.9970   -22.6580   -14.1610 ca         1 UZH       0.333000
     17 C14         11.7880   -20.6390   -11.8340 c6         1 UZH       0.133400
     18 C16         10.6440   -18.4680   -12.6370 c6         1 UZH       0.222300
     19 C18         10.7920   -18.9210   -10.1800 c6         1 UZH       0.222300
     20 C27          9.4170   -15.8970   -11.8340 ca         1 UZH      -0.373000
     21 C29         11.5920   -23.1330   -13.4270 c6         1 UZH       0.110800
     22 C30         10.3410   -22.5280   -12.7110 c          1 UZH       0.564000
     23 C32         14.2030   -23.9550   -14.6570 ca         1 UZH      -0.226000
     24 C33         15.3040   -24.2350   -15.4770 ca         1 UZH       0.208000
     25 C35         19.8780   -23.4530   -16.9190 c6         1 UZH       0.168300
     26 C36         21.2180   -23.2150   -16.1750 c6         1 UZH      -0.066900
     27 F34         15.4770   -25.4980   -15.9270 f          1 UZH      -0.182000
     28 N06         18.7140   -23.3850   -15.9940 n3         1 UZH      -0.721600
     29 N19         10.7450   -17.8950   -11.2640 nh         1 UZH      -0.788300
     30 N21         10.7580   -16.0140    -9.8570 nb         1 UZH      -0.303000
     31 N23          9.4980   -14.0250   -10.3440 nb         1 UZH      -0.293000
     32 N25          8.1800   -13.8350   -12.2190 nu         1 UZH      -0.937100
     33 N28         10.5340   -21.4180   -11.9150 ns         1 UZH      -0.504900
     34 O31          9.2260   -23.0200   -12.8150 o          1 UZH      -0.566000
     35 H1          14.7530   -20.6300   -14.1550 ha         1 UZH       0.118000
     36 H2          13.1260   -22.2600   -11.2270 h1         1 UZH       0.055700
     37 H3          13.9390   -20.9590   -12.0920 h1         1 UZH       0.055700
     38 H4          11.6330   -19.9270   -13.9030 hc         1 UZH       0.064200
     39 H5          12.7290   -18.9840   -12.9070 hc         1 UZH       0.064200
     40 H6          11.8760   -20.7290    -9.6500 hc         1 UZH       0.064200
     41 H7          12.8790   -19.4690   -10.3490 hc         1 UZH       0.064200
     42 H8          10.7100   -14.3020    -8.6790 h5         1 UZH       0.040100
     43 H9           6.9010   -13.3790   -13.8510 h1         1 UZH       0.037700
     44 H10          8.2870   -14.4220   -14.2570 h1         1 UZH       0.037700
     45 H11          6.9000   -15.0910   -13.3570 h1         1 UZH       0.037700
     46 H12         21.8370   -26.3590   -14.6810 hc         1 UZH       0.032533
     47 H13         20.8440   -26.0470   -16.1040 hc         1 UZH       0.032533
     48 H14         22.5740   -25.7060   -16.1480 hc         1 UZH       0.032533
     49 H15         22.8540   -24.4730   -13.3260 hc         1 UZH       0.032533
     50 H16         23.5940   -23.8190   -14.7940 hc         1 UZH       0.032533
     51 H17         22.5920   -22.7830   -13.7710 hc         1 UZH       0.032533
     52 H18         20.1140   -23.1720   -13.5820 hc         1 UZH       0.045450
     53 H19         20.2350   -24.8980   -13.2830 hc         1 UZH       0.045450
     54 H20         18.0090   -24.2600   -14.1740 h1         1 UZH       0.031450
     55 H21         18.8140   -25.3920   -15.2620 h1         1 UZH       0.031450
     56 H22         17.3990   -22.7890   -17.5450 h1         1 UZH       0.042700
     57 H23         17.3380   -24.5050   -17.1620 h1         1 UZH       0.042700
     58 H24         16.7070   -21.1240   -15.5900 ha         1 UZH       0.126000
     59 H25         10.7430   -17.6750   -13.3930 h1         1 UZH       0.056200
     60 H26          9.6590   -18.9370   -12.7820 h1         1 UZH       0.056200
     61 H27         10.9850   -18.4600    -9.2000 h1         1 UZH       0.056200
     62 H28          9.8190   -19.4280   -10.1030 h1         1 UZH       0.056200
     63 H29          9.0260   -16.3500   -12.7350 ha         1 UZH       0.126000
     64 H30         11.3030   -23.2540   -14.4800 h1         1 UZH       0.072200
     65 H31         11.7210   -24.1360   -12.9960 h1         1 UZH       0.072200
     66 H32         13.5220   -24.7580   -14.4010 ha         1 UZH       0.134000
     67 H33         19.7790   -22.6900   -17.7050 h1         1 UZH       0.031450
     68 H34         19.9070   -24.4280   -17.4270 h1         1 UZH       0.031450
     69 H35         22.0510   -23.2900   -16.8870 hc         1 UZH       0.045450
     70 H36         21.2300   -22.1830   -15.7990 hc         1 UZH       0.045450
     71 H38          7.9840   -12.9060   -11.8400 hn         1 UZH       0.508000
     72 H39          9.7100   -21.0650   -11.4460 hn         1 UZH       0.319500
     73 C07         17.4250   -23.5060   -16.7130 c3         1 UZH       0.224100
     74 C01         21.6810   -25.6610   -15.5120 c3         1 UZH      -0.083100
@<TRIPOS>BOND
     1     1    15 ar  
     2     1    16 ar  
     3     1    35 1   
     4     2     3 1   
     5     2    16 1   
     6     2    21 1   
     7     3    17 1   
     8     3    36 1   
     9     3    37 1   
    10     4    17 1   
    11     4    18 1   
    12     4    38 1   
    13     4    39 1   
    14     5    17 1   
    15     5    19 1   
    16     5    40 1   
    17     5    41 1   
    18     6    20 ar  
    19     6    29 1   
    20     6    30 ar  
    21     7    30 ar  
    22     7    31 ar  
    23     7    42 1   
    24     8    20 ar  
    25     8    31 ar  
    26     8    32 1   
    27     9    32 1   
    28     9    43 1   
    29     9    44 1   
    30     9    45 1   
    31    10    11 1   
    32    10    12 1   
    33    10    26 1   
    34    10    74 1   
    35    11    49 1   
    36    11    50 1   
    37    11    51 1   
    38    12    13 1   
    39    12    52 1   
    40    12    53 1   
    41    13    28 1   
    42    13    54 1   
    43    13    55 1   
    44    14    15 ar  
    45    14    24 ar  
    46    14    73 1   
    47    15    58 1   
    48    16    23 ar  
    49    17    33 1   
    50    18    29 1   
    51    18    59 1   
    52    18    60 1   
    53    19    29 1   
    54    19    61 1   
    55    19    62 1   
    56    20    63 1   
    57    21    22 1   
    58    21    64 1   
    59    21    65 1   
    60    22    33 1   
    61    22    34 2   
    62    23    24 ar  
    63    23    66 1   
    64    24    27 1   
    65    25    26 1   
    66    25    28 1   
    67    25    67 1   
    68    25    68 1   
    69    26    69 1   
    70    26    70 1   
    71    28    73 1   
    72    32    71 1   
    73    33    72 1   
    74    46    74 1   
    75    47    74 1   
    76    48    74 1   
    77    56    73 1   
    78    57    73 1   
@<TRIPOS>SUBSTRUCTURE
     1 UZH         1 TEMP              0 ****  ****    0 ROOT
