@<TRIPOS>MOLECULE
UZH
   74    78     1     0     0
SMALL
bcc


@<TRIPOS>ATOM
      1 C10         14.9000   -21.6230   -14.4210 ca         1 UZH      -0.201000
      2 N12         12.8470   -22.2970   -13.3040 nh         1 UZH      -0.659000
      3 C13         13.0330   -21.4750   -12.1270 c6         1 UZH       0.199800
      4 C15         11.4830   -19.6440   -12.9030 c6         1 UZH      -0.100900
      5 C17         11.9090   -19.9790   -10.4850 c6         1 UZH      -0.100900
      6 C20         10.1540   -16.8350   -11.0100 ca         1 UZH       0.748200
      7 C22         10.0630   -15.1260    -9.5190 ca         1 UZH       0.723900
      8 C24          9.3830   -14.6550   -11.6120 ca         1 UZH       0.735200
      9 C26          8.5810   -14.0130   -13.8500 c3         1 UZH       0.222100
     10 C02         21.2400   -24.0300   -14.9860 c6         1 UZH      -0.047000
     11 C03         22.4010   -23.5420   -14.1220 c3         1 UZH      -0.083100
     12 C04         19.9650   -24.0980   -14.1370 c6         1 UZH      -0.066900
     13 C05         18.7100   -24.3350   -14.9610 c6         1 UZH       0.168300
     14 C08         16.1280   -23.1740   -15.8420 ca         1 UZH      -0.156300
     15 C09         15.9630   -21.9220   -15.2480 ca         1 UZH      -0.050000
     16 C11         13.9300   -22.5940   -14.1200 ca         1 UZH       0.194600
     17 C14         11.7620   -20.6970   -11.8270 c6         1 UZH       0.133400
     18 C16         10.2960   -18.7600   -12.5490 c6         1 UZH       0.222300
     19 C18         10.7370   -19.0610   -10.1710 c6         1 UZH       0.222300
     20 C27          9.6420   -15.9750   -11.9890 ca         1 UZH      -0.521600
     21 C29         11.8460   -23.3160   -13.1140 c6         1 UZH       0.110800
     22 C30         10.6280   -22.8620   -12.3350 c          1 UZH       0.706500
     23 C32         14.0780   -23.8550   -14.7040 ca         1 UZH      -0.244000
     24 C33         15.1550   -24.1040   -15.5390 ca         1 UZH       0.172900
     25 C35         19.7030   -23.3060   -16.8840 c6         1 UZH       0.168300
     26 C36         20.9920   -23.0340   -16.1250 c6         1 UZH      -0.066900
     27 F34         15.2460   -25.3440   -16.0550 f          1 UZH      -0.146900
     28 N06         18.5630   -23.3150   -15.9850 n3         1 UZH      -0.721600
     29 N19         10.4880   -18.1290   -11.2570 nh         1 UZH      -0.788300
     30 N21         10.3500   -16.3900    -9.7550 nb         1 UZH      -0.829000
     31 N23          9.6000   -14.2210   -10.3550 nb         1 UZH      -0.819000
     32 N25          8.9000   -13.7450   -12.4740 nu         1 UZH      -0.881900
     33 N28         10.6680   -21.6570   -11.7500 ns         1 UZH      -0.571900
     34 O31          9.6670   -23.6120   -12.2430 o          1 UZH      -0.641500
     35 H1          14.8190   -20.6190   -14.0260 ha         1 UZH       0.136000
     36 H2          13.3000   -22.0930   -11.2570 h1         1 UZH       0.055700
     37 H3          13.8440   -20.7670   -12.2760 h1         1 UZH       0.055700
     38 H4          11.2950   -20.1250   -13.8650 hc         1 UZH       0.064200
     39 H5          12.3690   -19.0130   -13.0180 hc         1 UZH       0.064200
     40 H6          12.0210   -20.7090    -9.6800 hc         1 UZH       0.064200
     41 H7          12.8270   -19.3850   -10.5150 hc         1 UZH       0.064200
     42 H8          10.2310   -14.7880    -8.4990 h5         1 UZH       0.040100
     43 H9           8.2380   -13.0920   -14.3120 h1         1 UZH       0.037700
     44 H10          9.4520   -14.3650   -14.4090 h1         1 UZH       0.037700
     45 H11          7.7880   -14.7590   -13.9540 h1         1 UZH       0.037700
     46 H12         21.7710   -26.1200   -14.7300 hc         1 UZH       0.032533
     47 H13         20.8110   -25.8300   -16.1740 hc         1 UZH       0.032533
     48 H14         22.5060   -25.3640   -16.1420 hc         1 UZH       0.032533
     49 H15         22.5850   -24.2260   -13.2900 hc         1 UZH       0.032533
     50 H16         23.3230   -23.4700   -14.7030 hc         1 UZH       0.032533
     51 H17         22.1920   -22.5550   -13.7020 hc         1 UZH       0.032533
     52 H18         19.8490   -23.1540   -13.5940 hc         1 UZH       0.045450
     53 H19         20.0600   -24.8850   -13.3830 hc         1 UZH       0.045450
     54 H20         17.8400   -24.3020   -14.3020 h1         1 UZH       0.031450
     55 H21         18.7260   -25.3470   -15.4040 h1         1 UZH       0.031450
     56 H22         17.3310   -22.7280   -17.5360 h1         1 UZH       0.042700
     57 H23         17.2310   -24.4430   -17.1930 h1         1 UZH       0.042700
     58 H24         16.6970   -21.1510   -15.4550 ha         1 UZH       0.144000
     59 H25         10.1940   -18.0090   -13.3260 h1         1 UZH       0.056200
     60 H26          9.3660   -19.3430   -12.5520 h1         1 UZH       0.056200
     61 H27         10.9480   -18.5020    -9.2650 h1         1 UZH       0.056200
     62 H28          9.8280   -19.6430    -9.9700 h1         1 UZH       0.056200
     63 H29          9.4340   -16.3000   -12.9950 ha         1 UZH       0.144000
     64 H30         11.4790   -23.6630   -14.0820 h1         1 UZH       0.072200
     65 H31         12.2370   -24.2000   -12.5860 h1         1 UZH       0.072200
     66 H32         13.3870   -24.6640   -14.5110 ha         1 UZH       0.152000
     67 H33         19.5500   -22.5180   -17.6270 h1         1 UZH       0.031450
     68 H34         19.7810   -24.2500   -17.4510 h1         1 UZH       0.031450
     69 H35         21.8350   -23.0440   -16.8230 hc         1 UZH       0.045450
     70 H36         20.9400   -22.0220   -15.7090 hc         1 UZH       0.045450
     71 H38          8.7150   -12.8290   -12.1020 hn         1 UZH       0.452800
     72 H39          9.8280   -21.3930   -11.2520 hn         1 UZH       0.319500
     73 C07         17.3180   -23.4540   -16.7180 c3         1 UZH       0.224100
     74 C01         21.5940   -25.4110   -15.5420 c3         1 UZH      -0.083100
@<TRIPOS>BOND
     1     1    15 ar  
     2     1    16 ar  
     3     1    35 1   
     4     2     3 1   
     5     2    16 1   
     6     2    21 1   
     7     3    17 1   
     8     3    36 1   
     9     3    37 1   
    10     4    17 1   
    11     4    18 1   
    12     4    38 1   
    13     4    39 1   
    14     5    17 1   
    15     5    19 1   
    16     5    40 1   
    17     5    41 1   
    18     6    20 ar  
    19     6    29 1   
    20     6    30 ar  
    21     7    30 ar  
    22     7    31 ar  
    23     7    42 1   
    24     8    20 ar  
    25     8    31 ar  
    26     8    32 1   
    27     9    32 1   
    28     9    43 1   
    29     9    44 1   
    30     9    45 1   
    31    10    11 1   
    32    10    12 1   
    33    10    26 1   
    34    10    74 1   
    35    11    49 1   
    36    11    50 1   
    37    11    51 1   
    38    12    13 1   
    39    12    52 1   
    40    12    53 1   
    41    13    28 1   
    42    13    54 1   
    43    13    55 1   
    44    14    15 ar  
    45    14    24 ar  
    46    14    73 1   
    47    15    58 1   
    48    16    23 ar  
    49    17    33 1   
    50    18    29 1   
    51    18    59 1   
    52    18    60 1   
    53    19    29 1   
    54    19    61 1   
    55    19    62 1   
    56    20    63 1   
    57    21    22 1   
    58    21    64 1   
    59    21    65 1   
    60    22    33 1   
    61    22    34 2   
    62    23    24 ar  
    63    23    66 1   
    64    24    27 1   
    65    25    26 1   
    66    25    28 1   
    67    25    67 1   
    68    25    68 1   
    69    26    69 1   
    70    26    70 1   
    71    28    73 1   
    72    32    71 1   
    73    33    72 1   
    74    46    74 1   
    75    47    74 1   
    76    48    74 1   
    77    56    73 1   
    78    57    73 1   
@<TRIPOS>SUBSTRUCTURE
     1 UZH         1 TEMP              0 ****  ****    0 ROOT
