@<TRIPOS>MOLECULE
UZJ
   19    19     1     0     0
SMALL
bcc


@<TRIPOS>ATOM
      1 C4          23.0130     0.2220    69.5630 c6         1 UZJ       0.121100
      2 C5          21.5520    -0.1890    69.4170 c6         1 UZJ       0.095400
      3 C1          21.2980    -0.6440    71.7270 c6         1 UZJ       0.350900
      4 C2          22.7690    -0.3190    71.9800 c6         1 UZJ      -0.183400
      5 C3          23.6100    -0.5520    70.7280 c6         1 UZJ       0.162100
      6 O1          21.0820    -2.0220    71.5380 oh         1 UZJ      -0.630800
      7 O3          24.9530    -0.1660    70.8950 oh         1 UZJ      -0.574800
      8 O4          23.1600     1.6000    69.8160 oh         1 UZJ      -0.573800
      9 O5          20.8060     0.0110    70.6030 os         1 UZJ      -0.380600
     10 H41         23.5270    -0.0690    68.6340 h1         1 UZJ       0.046700
     11 H51         21.5060    -1.2320    69.0820 h1         1 UZJ       0.058200
     12 H52         21.0680     0.4140    68.6470 h1         1 UZJ       0.058200
     13 H11         20.6940    -0.2740    72.5660 h2         1 UZJ       0.067700
     14 H22         23.1390    -0.9260    72.8130 hc         1 UZJ       0.064700
     15 H23         22.8480     0.7230    72.2970 hc         1 UZJ       0.064700
     16 H31         23.5460    -1.6150    70.4570 h1         1 UZJ       0.035700
     17 H12         21.4680    -2.5020    72.2780 ho         1 UZJ       0.417000
     18 H32         25.3320    -0.6990    71.6010 ho         1 UZJ       0.400000
     19 H42         22.7470     2.0870    69.0970 ho         1 UZJ       0.402000
@<TRIPOS>BOND
     1     1     2 1   
     2     1     5 1   
     3     1     8 1   
     4     1    10 1   
     5     2     9 1   
     6     2    11 1   
     7     2    12 1   
     8     3     4 1   
     9     3     6 1   
    10     3     9 1   
    11     3    13 1   
    12     4     5 1   
    13     4    14 1   
    14     4    15 1   
    15     5     7 1   
    16     5    16 1   
    17     6    17 1   
    18     7    18 1   
    19     8    19 1   
@<TRIPOS>SUBSTRUCTURE
     1 UZJ         1 TEMP              0 ****  ****    0 ROOT
