@<TRIPOS>MOLECULE
UZJ
   19    19     1     0     0
SMALL
No Charge or Current Charge


@<TRIPOS>ATOM
      1 C4          23.0240     0.2670    69.5160 c6         1 UZJ       0.144300
      2 C5          21.5380    -0.1760    69.3730 c6         1 UZJ       0.118600
      3 C1          21.3010    -0.6560    71.7580 c6         1 UZJ       0.397300
      4 C2          22.8000    -0.3480    72.0010 c6         1 UZJ      -0.183400
      5 C3          23.6370    -0.5460    70.7090 c6         1 UZJ       0.185300
      6 O1          21.1040    -2.0470    71.5210 oh         1 UZJ      -0.693000
      7 O3          25.0100    -0.1960    70.9510 oh         1 UZJ      -0.637000
      8 O4          23.1130     1.6980    69.7370 oh         1 UZJ      -0.696000
      9 O5          20.8150     0.0660    70.6080 os         1 UZJ      -0.427000
     10 H41         23.5590    -0.0060    68.5940 h1         1 UZJ       0.046700
     11 H51         21.4840    -1.2430    69.1110 h1         1 UZJ       0.058200
     12 H52         21.0550     0.3850    68.5610 h1         1 UZJ       0.058200
     13 H11         20.7210    -0.3490    72.6440 h2         1 UZJ       0.067700
     14 H22         23.1850    -0.9850    72.8080 hc         1 UZJ       0.064700
     15 H23         22.8950     0.6870    72.3530 hc         1 UZJ       0.064700
     16 H31         23.5880    -1.6110    70.4370 h1         1 UZJ       0.035700
     17 H12         21.3060    -2.4920    72.3720 ho         1 UZJ       0.456000
     18 H32         25.3070    -0.7360    71.7140 ho         1 UZJ       0.439000
     19 H42         22.6780     2.1360    68.9710 ho         1 UZJ       0.501000
@<TRIPOS>BOND
     1     1     2 1   
     2     1     5 1   
     3     1     8 1   
     4     1    10 1   
     5     2     9 1   
     6     2    11 1   
     7     2    12 1   
     8     3     4 1   
     9     3     6 1   
    10     3     9 1   
    11     3    13 1   
    12     4     5 1   
    13     4    14 1   
    14     4    15 1   
    15     5     7 1   
    16     5    16 1   
    17     6    17 1   
    18     7    18 1   
    19     8    19 1   
@<TRIPOS>SUBSTRUCTURE
     1 UZJ         1 TEMP              0 ****  ****    0 ROOT
