@<TRIPOS>MOLECULE
UZK
   57    61     1     0     0
SMALL
No Charge or Current Charge


@<TRIPOS>ATOM
      1 C4         -12.7750     0.4840   -16.1240 ca         1 UZK      -0.049000
      2 C5         -12.2630    -0.5480   -16.9330 ca         1 UZK      -0.115000
      3 C6         -12.6370    -1.8860   -16.7300 ca         1 UZK      -0.096000
      4 C8         -13.1250     2.9590   -16.5220 c3         1 UZK       0.134700
      5 C10        -14.2570     2.4550   -14.3430 c          1 UZK       0.586000
      6 C13        -13.3580     3.1410   -18.0400 c3         1 UZK      -0.117100
      7 C17        -15.1350    -6.3780   -16.7930 c3         1 UZK      -0.073400
      8 C20        -14.9660    -8.8060   -17.8230 cx         1 UZK      -0.131900
      9 C26         -7.8760     0.7580   -14.4380 cx         1 UZK      -0.149200
     10 C28        -10.2800     0.2310   -14.5570 c5         1 UZK       0.131000
     11 C25         -8.4260     1.4160   -15.7090 c5         1 UZK       0.131000
     12 C29         -8.4330     1.3270   -13.1490 cx         1 UZK      -0.108400
     13 C27         -8.9970     0.0500   -13.7370 cx         1 UZK      -0.149200
     14 N23         -9.8950     1.1860   -15.6330 n          1 UZK      -0.430800
     15 O24        -10.3700     3.1050   -16.7670 o          1 UZK      -0.625100
     16 N7         -12.2070     1.8100   -16.2580 n          1 UZK      -0.253400
     17 C9         -14.4820     2.8280   -15.8040 c3         1 UZK      -0.176400
     18 O12        -14.2630     3.2810   -13.4400 o          1 UZK      -0.537000
     19 N11        -14.0770     1.1090   -14.1170 ns         1 UZK      -0.161000
     20 C3         -13.6090     0.1330   -15.0310 ca         1 UZK      -0.044000
     21 C2         -13.9650    -1.2100   -14.8160 ca         1 UZK      -0.088000
     22 C1         -13.5000    -2.2370   -15.6660 ca         1 UZK      -0.136600
     23 C14        -13.9200    -3.6710   -15.4020 c          1 UZK       0.611700
     24 O21        -14.6520    -3.9740   -14.4690 o          1 UZK      -0.596100
     25 N15        -13.4320    -4.6280   -16.2670 ns         1 UZK      -0.498900
     26 C16        -13.7480    -6.0580   -16.2010 c3         1 UZK       0.101000
     27 C18        -15.4620    -7.8670   -16.7480 cx         1 UZK      -0.122700
     28 C19        -16.4400    -8.4780   -17.7240 cx         1 UZK      -0.131900
     29 H1         -11.5680    -0.3090   -17.7350 ha         1 UZK       0.131000
     30 H2         -12.2280    -2.6380   -17.3990 ha         1 UZK       0.119000
     31 H3         -12.6490     3.8730   -16.1380 h1         1 UZK       0.088700
     32 H4         -14.0100     4.0020   -18.2310 hc         1 UZK       0.048033
     33 H5         -12.4110     3.3130   -18.5630 hc         1 UZK       0.048033
     34 H6         -13.8280     2.2490   -18.4720 hc         1 UZK       0.048033
     35 H7         -15.9020    -5.8240   -16.2390 hc         1 UZK       0.050200
     36 H8         -15.1720    -6.0140   -17.8270 hc         1 UZK       0.050200
     37 H10        -14.4090    -8.3830   -18.6560 hc         1 UZK       0.070200
     38 H11         -6.8760     0.3310   -14.4220 hc         1 UZK       0.097200
     39 H12        -11.1000     0.6250   -13.9430 h1         1 UZK       0.060700
     40 H13        -10.6040    -0.7280   -14.9790 h1         1 UZK       0.060700
     41 H14         -8.0180     0.9540   -16.6180 h1         1 UZK       0.060700
     42 H15         -8.1760     2.4850   -15.7460 h1         1 UZK       0.060700
     43 H16         -7.8200     1.2410   -12.2550 hc         1 UZK       0.079700
     44 H17         -9.0350     2.2320   -13.1940 hc         1 UZK       0.079700
     45 H18         -8.8010    -0.8850   -13.2170 hc         1 UZK       0.097200
     46 H19        -15.0300     3.7740   -15.8710 hc         1 UZK       0.074700
     47 H20        -15.0400     2.0260   -16.3040 hc         1 UZK       0.074700
     48 H21        -14.0870     0.8240   -13.1460 hn         1 UZK       0.163000
     49 H22        -14.6120    -1.4550   -13.9760 ha         1 UZK       0.144000
     50 H23        -12.8310    -4.3040   -17.0130 hn         1 UZK       0.312500
     51 H24        -13.7070    -6.3880   -15.1540 h1         1 UZK       0.058700
     52 H25        -12.9790    -6.6100   -16.7580 h1         1 UZK       0.058700
     53 H26        -15.4840    -8.2570   -15.7320 hc         1 UZK       0.080700
     54 H27        -16.8680    -7.8370   -18.4910 hc         1 UZK       0.070200
     55 H28        -17.1080    -9.2520   -17.3530 hc         1 UZK       0.070200
     56 C22        -10.8040     2.0810   -16.2520 c          1 UZK       0.667100
     57 H9         -14.6460    -9.7990   -17.5190 hc         1 UZK       0.070200
@<TRIPOS>BOND
     1     1     2 ar  
     2     1    16 1   
     3     1    20 ar  
     4     2     3 ar  
     5     2    29 1   
     6     3    22 ar  
     7     3    30 1   
     8     4     6 1   
     9     4    16 1   
    10     4    17 1   
    11     4    31 1   
    12     5    17 1   
    13     5    18 2   
    14     5    19 1   
    15     6    32 1   
    16     6    33 1   
    17     6    34 1   
    18     7    26 1   
    19     7    27 1   
    20     7    35 1   
    21     7    36 1   
    22     8    27 1   
    23     8    28 1   
    24     8    37 1   
    25     8    57 1   
    26     9    11 1   
    27     9    12 1   
    28     9    13 1   
    29     9    38 1   
    30    10    13 1   
    31    10    14 1   
    32    10    39 1   
    33    10    40 1   
    34    11    14 1   
    35    11    41 1   
    36    11    42 1   
    37    12    13 1   
    38    12    43 1   
    39    12    44 1   
    40    13    45 1   
    41    14    56 1   
    42    15    56 2   
    43    16    56 1   
    44    17    46 1   
    45    17    47 1   
    46    19    20 1   
    47    19    48 1   
    48    20    21 ar  
    49    21    22 ar  
    50    21    49 1   
    51    22    23 1   
    52    23    24 2   
    53    23    25 1   
    54    25    26 1   
    55    25    50 1   
    56    26    51 1   
    57    26    52 1   
    58    27    28 1   
    59    27    53 1   
    60    28    54 1   
    61    28    55 1   
@<TRIPOS>SUBSTRUCTURE
     1 UZK         1 TEMP              0 ****  ****    0 ROOT
