@<TRIPOS>MOLECULE
UZK
   57    61     1     0     0
SMALL
abcg2


@<TRIPOS>ATOM
      1 C4         -12.4580     0.2890   -15.9490 ca         1 UZK      -0.049000
      2 C5         -11.9290    -0.6590   -16.8140 ca         1 UZK      -0.115000
      3 C6         -12.2440    -1.9990   -16.6750 ca         1 UZK      -0.096000
      4 C8         -13.1210     2.5670   -16.5730 c3         1 UZK       0.134700
      5 C10        -14.3590     2.0430   -14.4060 c          1 UZK       0.586000
      6 C13        -13.2770     2.4780   -18.0840 c3         1 UZK      -0.117100
      7 C17        -15.3380    -6.2290   -16.7810 c3         1 UZK      -0.073400
      8 C20        -15.4970    -8.4620   -18.0980 cx         1 UZK      -0.131900
      9 C26         -7.8560     1.3030   -14.2560 cx         1 UZK      -0.149200
     10 C28        -10.1590     0.5280   -14.2330 c5         1 UZK       0.131000
     11 C25         -8.4460     1.4980   -15.6300 c5         1 UZK       0.131000
     12 C29         -8.4600     2.1120   -13.1520 cx         1 UZK      -0.108400
     13 C27         -8.9200     0.7070   -13.3880 cx         1 UZK      -0.149200
     14 N23         -9.8790     1.3090   -15.4350 n          1 UZK      -0.430800
     15 O24        -10.4520     3.0070   -16.8220 o          1 UZK      -0.625100
     16 N7         -12.1040     1.6520   -16.0420 n          1 UZK      -0.253400
     17 C9         -14.4640     2.2900   -15.8920 c3         1 UZK      -0.176400
     18 O12        -14.7230     2.8440   -13.5670 o          1 UZK      -0.537000
     19 N11        -13.8730     0.8190   -14.0580 ns         1 UZK      -0.161000
     20 C3         -13.3510    -0.1200   -14.9520 ca         1 UZK      -0.044000
     21 C2         -13.6630    -1.4650   -14.8150 ca         1 UZK      -0.088000
     22 C1         -13.1210    -2.4120   -15.6750 ca         1 UZK      -0.136600
     23 C14        -13.5090    -3.8450   -15.4680 c          1 UZK       0.611700
     24 O21        -13.8580    -4.2470   -14.3670 o          1 UZK      -0.596100
     25 N15        -13.4510    -4.6310   -16.5550 ns         1 UZK      -0.498900
     26 C16        -13.8440    -6.0240   -16.5500 c3         1 UZK       0.101000
     27 C18        -15.6930    -7.6920   -16.8280 cx         1 UZK      -0.122700
     28 C19        -16.8820    -8.1540   -17.6100 cx         1 UZK      -0.131900
     29 H1         -11.2450    -0.3470   -17.5930 ha         1 UZK       0.131000
     30 H2         -11.7810    -2.7110   -17.3460 ha         1 UZK       0.119000
     31 H3         -12.8050     3.5740   -16.3000 h1         1 UZK       0.088700
     32 H4         -14.0510     3.1690   -18.4220 hc         1 UZK       0.048033
     33 H5         -12.3510     2.7310   -18.5930 hc         1 UZK       0.048033
     34 H6         -13.5760     1.4720   -18.3860 hc         1 UZK       0.048033
     35 H7         -15.9020    -5.7310   -15.9870 hc         1 UZK       0.050200
     36 H8         -15.6270    -5.7480   -17.7210 hc         1 UZK       0.050200
     37 H10        -15.1340    -7.9200   -18.9640 hc         1 UZK       0.070200
     38 H11         -6.8230     0.9860   -14.1840 hc         1 UZK       0.097200
     39 H12        -11.0560     0.8980   -13.7340 h1         1 UZK       0.060700
     40 H13        -10.3060    -0.5330   -14.4560 h1         1 UZK       0.060700
     41 H14         -8.0480     0.7490   -16.3220 h1         1 UZK       0.060700
     42 H15         -8.2400     2.4820   -16.0470 h1         1 UZK       0.060700
     43 H16         -7.8490     2.2920   -12.2770 hc         1 UZK       0.079700
     44 H17         -9.1250     2.9320   -13.4050 hc         1 UZK       0.079700
     45 H18         -8.6920    -0.0590   -12.6580 hc         1 UZK       0.097200
     46 H19        -15.1120     3.1510   -16.0520 hc         1 UZK       0.074700
     47 H20        -14.9520     1.4320   -16.3630 hc         1 UZK       0.074700
     48 H21        -13.9320     0.5610   -13.0820 hn         1 UZK       0.163000
     49 H22        -14.3420    -1.7700   -14.0280 ha         1 UZK       0.144000
     50 H23        -13.3100    -4.2070   -17.4570 hn         1 UZK       0.312500
     51 H24        -13.5420    -6.4740   -15.6040 h1         1 UZK       0.058700
     52 H25        -13.2780    -6.5270   -17.3360 h1         1 UZK       0.058700
     53 H26        -15.4900    -8.2360   -15.9100 hc         1 UZK       0.080700
     54 H27        -17.4560    -7.4080   -18.1470 hc         1 UZK       0.070200
     55 H28        -17.4770    -8.9660   -17.2130 hc         1 UZK       0.070200
     56 C22        -10.7750     2.0420   -16.1440 c          1 UZK       0.667100
     57 H9         -15.1470    -9.4840   -18.0370 hc         1 UZK       0.070200
@<TRIPOS>BOND
     1     1     2 ar  
     2     1    16 1   
     3     1    20 ar  
     4     2     3 ar  
     5     2    29 1   
     6     3    22 ar  
     7     3    30 1   
     8     4     6 1   
     9     4    16 1   
    10     4    17 1   
    11     4    31 1   
    12     5    17 1   
    13     5    18 2   
    14     5    19 1   
    15     6    32 1   
    16     6    33 1   
    17     6    34 1   
    18     7    26 1   
    19     7    27 1   
    20     7    35 1   
    21     7    36 1   
    22     8    27 1   
    23     8    28 1   
    24     8    37 1   
    25     8    57 1   
    26     9    11 1   
    27     9    12 1   
    28     9    13 1   
    29     9    38 1   
    30    10    13 1   
    31    10    14 1   
    32    10    39 1   
    33    10    40 1   
    34    11    14 1   
    35    11    41 1   
    36    11    42 1   
    37    12    13 1   
    38    12    43 1   
    39    12    44 1   
    40    13    45 1   
    41    14    56 1   
    42    15    56 2   
    43    16    56 1   
    44    17    46 1   
    45    17    47 1   
    46    19    20 1   
    47    19    48 1   
    48    20    21 ar  
    49    21    22 ar  
    50    21    49 1   
    51    22    23 1   
    52    23    24 2   
    53    23    25 1   
    54    25    26 1   
    55    25    50 1   
    56    26    51 1   
    57    26    52 1   
    58    27    28 1   
    59    27    53 1   
    60    28    54 1   
    61    28    55 1   
@<TRIPOS>SUBSTRUCTURE
     1 UZK         1 TEMP              0 ****  ****    0 ROOT
