@<TRIPOS>MOLECULE
UZM
   40    40     1     0     0
SMALL
abcg2


@<TRIPOS>ATOM
      1 C11          0.5840    -9.5240    23.1350 ca         1 UZM      -0.100000
      2 C12          1.8130    -9.7480    22.5370 ca         1 UZM      -0.093000
      3 C13          3.7220   -10.5170    20.2850 c3         1 UZM      -0.146400
      4 C14          4.9100   -10.6580    19.3550 c          1 UZM       0.601100
      5 C20          5.7820    -5.0960    20.0480 c3         1 UZM      -0.099400
      6 C19          6.7650    -6.0270    20.7600 c3         1 UZM       0.107000
      7 C03          4.8670    -9.0540    22.0240 c3         1 UZM      -0.155400
      8 C04          3.7160    -9.1570    20.9860 c3         1 UZM      -0.005400
      9 C05          2.3720    -8.8590    21.6130 ca         1 UZM      -0.069300
     10 C06          1.6310    -7.7130    21.3220 ca         1 UZM       0.143000
     11 C08          0.3930    -7.4560    21.9030 ca         1 UZM      -0.092000
     12 C09         -0.1180    -8.3720    22.8060 ca         1 UZM       0.132000
     13 C21          6.4070    -3.7340    19.7790 c3         1 UZM       0.096600
     14 N15          5.1160   -11.8860    18.8200 ns         1 UZM      -0.368400
     15 N18          6.2090    -7.3470    20.9960 ns         1 UZM      -0.506900
     16 O01          5.2640    -6.8850    23.0120 o          1 UZM      -0.605100
     17 O16          4.1060   -12.8450    18.8590 oh         1 UZM      -0.443100
     18 O17          5.6890    -9.7430    19.0900 o          1 UZM      -0.608100
     19 S22          5.1800    -2.6600    18.9350 sh         1 UZM      -0.468800
     20 CL07         2.2320    -6.5150    20.1920 cl         1 UZM      -0.193000
     21 CL10        -1.6740    -8.0660    23.5420 cl         1 UZM      -0.197000
     22 H1           0.1760   -10.2320    23.8430 ha         1 UZM       0.134000
     23 H2           2.3600   -10.6440    22.7990 ha         1 UZM       0.117000
     24 H3           2.8180   -10.6420    19.6830 hc         1 UZM       0.077200
     25 H4           3.7270   -11.3430    20.9980 hc         1 UZM       0.077200
     26 H5           4.8870    -4.9830    20.6640 hc         1 UZM       0.064700
     27 H6           5.4700    -5.5570    19.1070 hc         1 UZM       0.064700
     28 H7           7.6690    -6.1460    20.1620 h1         1 UZM       0.054700
     29 H8           7.0520    -5.6020    21.7220 h1         1 UZM       0.054700
     30 H9           4.5140    -9.3160    23.0190 hc         1 UZM       0.069200
     31 H10          5.6580    -9.7550    21.7540 hc         1 UZM       0.069200
     32 H11          3.8940    -8.4140    20.2140 hc         1 UZM       0.085700
     33 H12         -0.1530    -6.5590    21.6530 ha         1 UZM       0.148000
     34 H13          7.2830    -3.8330    19.1390 h1         1 UZM       0.057700
     35 H14          6.7050    -3.2560    20.7120 h1         1 UZM       0.057700
     36 H15          5.7370   -11.9780    18.0260 hn         1 UZM       0.337500
     37 H16          6.2290    -8.0220    20.2410 hn         1 UZM       0.338500
     38 H17          4.4020   -13.5080    19.5010 ho         1 UZM       0.456000
     39 H18          5.9570    -1.5710    18.8120 hs         1 UZM       0.213800
     40 C02          5.4600    -7.6590    22.0720 c          1 UZM       0.594100
@<TRIPOS>BOND
     1     1     2 ar  
     2     1    12 ar  
     3     1    22 1   
     4     2     9 ar  
     5     2    23 1   
     6     3     4 1   
     7     3     8 1   
     8     3    24 1   
     9     3    25 1   
    10     4    14 1   
    11     4    18 2   
    12     5     6 1   
    13     5    13 1   
    14     5    26 1   
    15     5    27 1   
    16     6    15 1   
    17     6    28 1   
    18     6    29 1   
    19     7     8 1   
    20     7    30 1   
    21     7    31 1   
    22     7    40 1   
    23     8     9 1   
    24     8    32 1   
    25     9    10 ar  
    26    10    11 ar  
    27    10    20 1   
    28    11    12 ar  
    29    11    33 1   
    30    12    21 1   
    31    13    19 1   
    32    13    34 1   
    33    13    35 1   
    34    14    17 1   
    35    14    36 1   
    36    15    37 1   
    37    15    40 1   
    38    16    40 2   
    39    17    38 1   
    40    19    39 1   
@<TRIPOS>SUBSTRUCTURE
     1 UZM         1 TEMP              0 ****  ****    0 ROOT
