@<TRIPOS>MOLECULE
UZM
   40    40     1     0     0
SMALL
No Charge or Current Charge


@<TRIPOS>ATOM
      1 C11          0.9020    -8.9680    23.2050 ca         1 UZM      -0.100000
      2 C12          1.9430    -9.4970    22.4240 ca         1 UZM      -0.093000
      3 C13          3.2080   -10.8550    19.9760 c3         1 UZM      -0.146400
      4 C14          4.1750   -11.3710    18.8900 c          1 UZM       0.601100
      5 C20          5.7030    -4.9630    20.3570 c3         1 UZM      -0.099400
      6 C19          6.7360    -5.9930    20.8570 c3         1 UZM       0.107000
      7 C03          4.9060    -9.3710    21.2370 c3         1 UZM      -0.155400
      8 C04          3.5620    -9.4180    20.4550 c3         1 UZM      -0.005400
      9 C05          2.4120    -8.8100    21.2800 ca         1 UZM      -0.069300
     10 C06          1.8150    -7.5640    20.9470 ca         1 UZM       0.143000
     11 C08          0.7750    -7.0420    21.7340 ca         1 UZM      -0.092000
     12 C09          0.3190    -7.7420    22.8580 ca         1 UZM       0.132000
     13 C21          6.2190    -3.5150    20.4370 c3         1 UZM       0.096600
     14 N15          5.0840   -12.3740    19.2130 ns         1 UZM      -0.368400
     15 N18          6.2390    -7.3680    20.7480 ns         1 UZM      -0.506900
     16 O01          4.8640    -7.3420    22.5610 o          1 UZM      -0.605100
     17 O16          4.9910   -13.1430    20.4380 oh         1 UZM      -0.443100
     18 O17          4.1500   -10.9240    17.7530 o          1 UZM      -0.608100
     19 S22          4.9830    -2.2740    19.8340 sh         1 UZM      -0.468800
     20 Cl07         2.3400    -6.6060    19.5580 cl         1 UZM      -0.193000
     21 Cl10        -0.9820    -7.0790    23.8390 cl         1 UZM      -0.197000
     22 H1           0.5510    -9.5060    24.0820 ha         1 UZM       0.134000
     23 H2           2.3890   -10.4440    22.7190 ha         1 UZM       0.117000
     24 H3           2.2080   -10.8200    19.5300 hc         1 UZM       0.077200
     25 H4           3.1850   -11.5250    20.8390 hc         1 UZM       0.077200
     26 H5           4.7850    -5.0460    20.9500 hc         1 UZM       0.064700
     27 H6           5.4380    -5.1930    19.3180 hc         1 UZM       0.064700
     28 H7           7.6560    -5.9070    20.2640 h1         1 UZM       0.054700
     29 H8           6.9890    -5.7860    21.9060 h1         1 UZM       0.054700
     30 H9           4.8040    -9.9500    22.1630 hc         1 UZM       0.069200
     31 H10          5.6830    -9.8140    20.6050 hc         1 UZM       0.069200
     32 H11          3.7160    -8.8330    19.5410 hc         1 UZM       0.085700
     33 H12          0.3250    -6.0890    21.4720 ha         1 UZM       0.148000
     34 H13          7.1310    -3.4170    19.8320 h1         1 UZM       0.057700
     35 H14          6.4720    -3.2740    21.4770 h1         1 UZM       0.057700
     36 H15          5.5820   -12.8230    18.4450 hn         1 UZM       0.337500
     37 H16          6.5670    -7.9390    19.9770 hn         1 UZM       0.338500
     38 H17          5.9230   -13.1820    20.7610 ho         1 UZM       0.456000
     39 H18          5.7570    -1.1800    20.0490 hs         1 UZM       0.213800
     40 C02          5.3090    -7.9340    21.5890 c          1 UZM       0.594100
@<TRIPOS>BOND
     1     1     2 ar  
     2     1    12 ar  
     3     1    22 1   
     4     2     9 ar  
     5     2    23 1   
     6     3     4 1   
     7     3     8 1   
     8     3    24 1   
     9     3    25 1   
    10     4    14 1   
    11     4    18 2   
    12     5     6 1   
    13     5    13 1   
    14     5    26 1   
    15     5    27 1   
    16     6    15 1   
    17     6    28 1   
    18     6    29 1   
    19     7     8 1   
    20     7    30 1   
    21     7    31 1   
    22     7    40 1   
    23     8     9 1   
    24     8    32 1   
    25     9    10 ar  
    26    10    11 ar  
    27    10    20 1   
    28    11    12 ar  
    29    11    33 1   
    30    12    21 1   
    31    13    19 1   
    32    13    34 1   
    33    13    35 1   
    34    14    17 1   
    35    14    36 1   
    36    15    37 1   
    37    15    40 1   
    38    16    40 2   
    39    17    38 1   
    40    19    39 1   
@<TRIPOS>SUBSTRUCTURE
     1 UZM         1 TEMP              0 ****  ****    0 ROOT
