@<TRIPOS>MOLECULE
UZN
   26    25     1     0     0
SMALL
No Charge or Current Charge


@<TRIPOS>ATOM
      1 CA         -28.0520    39.2260   -12.3540 c3         1 UZN       0.139500
      2 C          -29.9090    41.1190   -14.2980 c          1 UZN       0.730000
      3 O          -30.3390    41.4810   -13.2200 o          1 UZN      -0.748000
      4 CB         -27.0840    39.1240   -11.1430 c3         1 UZN      -0.067400
      5 CG         -27.4140    38.0200   -10.1030 c3         1 UZN      -0.069400
      6 CD         -28.7620    38.2150    -9.3690 c3         1 UZN      -0.080400
      7 CE         -29.0150    37.1510    -8.2840 c3         1 UZN      -0.087100
      8 C2         -27.7130    40.4530   -13.2570 c3         1 UZN       0.133000
      9 N1         -28.0580    37.9650   -13.1380 n8         1 UZN      -1.009200
     10 N2         -28.6380    40.6340   -14.3840 ns         1 UZN      -0.584900
     11 OXT        -30.5350    41.1710   -15.3370 o          1 UZN      -0.748000
     12 H1         -29.0680    39.3840   -11.9680 h1         1 UZN       0.052700
     13 H2         -26.0650    38.9600   -11.5150 hc         1 UZN       0.033700
     14 H3         -27.0660    40.0910   -10.6240 hc         1 UZN       0.033700
     15 H4         -27.4000    37.0370   -10.5870 hc         1 UZN       0.025200
     16 H5         -26.6100    38.0060    -9.3560 hc         1 UZN       0.025200
     17 H6         -28.7840    39.2090    -8.9050 hc         1 UZN       0.045700
     18 H7         -29.5860    38.1800   -10.0920 hc         1 UZN       0.045700
     19 H8         -29.9800    37.3270    -7.7940 hc         1 UZN       0.021700
     20 H9         -29.0320    36.1460    -8.7230 hc         1 UZN       0.021700
     21 H10        -28.2310    37.1820    -7.5190 hc         1 UZN       0.021700
     22 H11        -26.7000    40.3360   -13.6640 h1         1 UZN       0.013200
     23 H12        -27.7190    41.3680   -12.6490 h1         1 UZN       0.013200
     24 H13        -28.5130    37.2330   -12.5820 hn         1 UZN       0.389000
     25 H14        -28.6880    38.0930   -13.9380 hn         1 UZN       0.389000
     26 H16        -28.3330    40.3570   -15.3060 hn         1 UZN       0.261500
@<TRIPOS>BOND
     1     1     4 1   
     2     1     8 1   
     3     1     9 1   
     4     1    12 1   
     5     2     3 1   
     6     2    10 1   
     7     2    11 1   
     8     4     5 1   
     9     4    13 1   
    10     4    14 1   
    11     5     6 1   
    12     5    15 1   
    13     5    16 1   
    14     6     7 1   
    15     6    17 1   
    16     6    18 1   
    17     7    19 1   
    18     7    20 1   
    19     7    21 1   
    20     8    10 1   
    21     8    22 1   
    22     8    23 1   
    23     9    24 1   
    24     9    25 1   
    25    10    26 1   
@<TRIPOS>SUBSTRUCTURE
     1 UZN         1 TEMP              0 ****  ****    0 ROOT
