@<TRIPOS>MOLECULE
UZN
   26    25     1     0     0
SMALL
bcc


@<TRIPOS>ATOM
      1 CA         -28.1440    39.2180   -12.2930 c3         1 UZN       0.139500
      2 C          -29.8390    41.2400   -14.3270 c          1 UZN       1.007600
      3 O          -30.2070    41.6340   -13.1990 o          1 UZN      -0.853300
      4 CB         -27.1500    39.1710   -11.1380 c3         1 UZN      -0.067400
      5 CG         -27.4060    38.0790   -10.1010 c3         1 UZN      -0.069400
      6 CD         -28.7770    38.1490    -9.4370 c3         1 UZN      -0.080400
      7 CE         -28.9360    37.1270    -8.3200 c3         1 UZN      -0.087100
      8 C2         -27.7650    40.3340   -13.2650 c3         1 UZN       0.133000
      9 N1         -28.1520    37.9500   -13.0140 n8         1 UZN      -0.898800
     10 N2         -28.6710    40.4590   -14.3790 ns         1 UZN      -0.651900
     11 OXT        -30.4060    41.4440   -15.4220 o          1 UZN      -0.853300
     12 H1         -29.1350    39.4710   -11.8880 h1         1 UZN       0.052700
     13 H2         -26.1420    39.0430   -11.5480 hc         1 UZN       0.033700
     14 H3         -27.1590    40.1440   -10.6350 hc         1 UZN       0.033700
     15 H4         -27.2740    37.0910   -10.5550 hc         1 UZN       0.025200
     16 H5         -26.6340    38.1500    -9.3280 hc         1 UZN       0.025200
     17 H6         -28.9360    39.1560    -9.0390 hc         1 UZN       0.045700
     18 H7         -29.5620    37.9910   -10.1820 hc         1 UZN       0.045700
     19 H8         -29.9250    37.1820    -7.8630 hc         1 UZN       0.021700
     20 H9         -28.8020    36.1100    -8.6940 hc         1 UZN       0.021700
     21 H10        -28.1990    37.2870    -7.5310 hc         1 UZN       0.021700
     22 H11        -26.7690    40.1170   -13.6620 h1         1 UZN       0.013200
     23 H12        -27.6860    41.2730   -12.7060 h1         1 UZN       0.013200
     24 H13        -28.6080    37.2380   -12.4560 hn         1 UZN       0.333800
     25 H14        -28.7390    38.0650   -13.8330 hn         1 UZN       0.333800
     26 H16        -28.2700    40.3440   -15.2940 hn         1 UZN       0.261500
@<TRIPOS>BOND
     1     1     4 1   
     2     1     8 1   
     3     1     9 1   
     4     1    12 1   
     5     2     3 1   
     6     2    10 1   
     7     2    11 1   
     8     4     5 1   
     9     4    13 1   
    10     4    14 1   
    11     5     6 1   
    12     5    15 1   
    13     5    16 1   
    14     6     7 1   
    15     6    17 1   
    16     6    18 1   
    17     7    19 1   
    18     7    20 1   
    19     7    21 1   
    20     8    10 1   
    21     8    22 1   
    22     8    23 1   
    23     9    24 1   
    24     9    25 1   
    25    10    26 1   
@<TRIPOS>SUBSTRUCTURE
     1 UZN         1 TEMP              0 ****  ****    0 ROOT
