@<TRIPOS>MOLECULE
UZP
   45    45     1     0     0
SMALL
No Charge or Current Charge


@<TRIPOS>ATOM
      1 C11          5.4880   -12.8540    18.6580 ca         1 UZP      -0.107000
      2 O16          6.7430    -5.6860    21.9760 oh         1 UZP      -0.420100
      3 O17          5.9430    -8.0430    23.2900 o          1 UZP      -0.557100
      4 C03          4.1390    -8.8470    19.9820 c3         1 UZP      -0.158400
      5 C04          4.8150    -9.8430    20.9650 c3         1 UZP      -0.002400
      6 C05          4.7790   -11.2750    20.3940 ca         1 UZP      -0.076300
      7 C06          3.9990   -12.3090    20.9790 ca         1 UZP       0.141000
      8 C08          3.9760   -13.5920    20.4070 ca         1 UZP      -0.098000
      9 C09          4.7180   -13.8640    19.2500 ca         1 UZP       0.127000
     10 C12          5.5190   -11.5690    19.2260 ca         1 UZP      -0.104000
     11 C13          6.2670    -9.4240    21.3300 c3         1 UZP      -0.155400
     12 C14          6.3180    -8.1140    22.1270 c          1 UZP       0.598100
     13 C19          1.2790   -10.5000    18.0060 c3         1 UZP       0.103000
     14 C20          1.1270   -11.9100    18.6140 c3         1 UZP      -0.094400
     15 C21         -0.1610   -12.6300    18.1550 c3         1 UZP      -0.071400
     16 C22         -0.3860   -14.0110    18.8160 c3         1 UZP      -0.074400
     17 C23          0.6750   -15.0710    18.4550 c3         1 UZP      -0.090100
     18 N15          6.8600    -7.0290    21.4480 ns         1 UZP      -0.394400
     19 N18          2.5180    -9.8610    18.4460 ns         1 UZP      -0.505900
     20 O01          1.7850    -9.1090    20.4710 o          1 UZP      -0.591100
     21 Cl07         3.0170   -12.0520    22.4230 cl         1 UZP      -0.168000
     22 Cl10         4.6790   -15.4710    18.5370 cl         1 UZP      -0.190000
     23 H1           6.0600   -13.0660    17.7590 ha         1 UZP       0.132000
     24 H2           7.6630    -5.3340    21.9240 ho         1 UZP       0.445000
     25 H3           4.7230    -8.8080    19.0550 hc         1 UZP       0.062700
     26 H4           4.1090    -7.8540    20.4440 hc         1 UZP       0.062700
     27 H5           4.2430    -9.7950    21.8990 hc         1 UZP       0.112700
     28 H6           3.3770   -14.3760    20.8600 ha         1 UZP       0.147000
     29 H7           6.1180   -10.8000    18.7450 ha         1 UZP       0.112000
     30 H8           6.6990   -10.2140    21.9550 hc         1 UZP       0.064200
     31 H9           6.8600    -9.3250    20.4130 hc         1 UZP       0.064200
     32 H10          1.2920   -10.5720    16.9100 h1         1 UZP       0.052700
     33 H11          0.4250    -9.8740    18.2960 h1         1 UZP       0.052700
     34 H12          1.1270   -11.8340    19.7080 hc         1 UZP       0.042200
     35 H13          2.0030   -12.5070    18.3320 hc         1 UZP       0.042200
     36 H14         -0.1430   -12.7490    17.0650 hc         1 UZP       0.042700
     37 H15         -1.0230   -11.9920    18.3860 hc         1 UZP       0.042700
     38 H16         -1.3700   -14.3860    18.5110 hc         1 UZP       0.038700
     39 H17         -0.4210   -13.8920    19.9060 hc         1 UZP       0.038700
     40 H18          0.4050   -16.0410    18.8880 hc         1 UZP       0.031367
     41 H19          0.7520   -15.1910    17.3680 hc         1 UZP       0.031367
     42 H20          1.6600   -14.7910    18.8450 hc         1 UZP       0.031367
     43 H21          7.0340    -7.1040    20.4460 hn         1 UZP       0.333500
     44 H22          3.3390    -9.9480    17.8580 hn         1 UZP       0.309500
     45 C02          2.7020    -9.2790    19.6800 c          1 UZP       0.597100
@<TRIPOS>BOND
     1     1     9 ar  
     2     1    10 ar  
     3     1    23 1   
     4     2    18 1   
     5     2    24 1   
     6     3    12 2   
     7     4     5 1   
     8     4    25 1   
     9     4    26 1   
    10     4    45 1   
    11     5     6 1   
    12     5    11 1   
    13     5    27 1   
    14     6     7 ar  
    15     6    10 ar  
    16     7     8 ar  
    17     7    21 1   
    18     8     9 ar  
    19     8    28 1   
    20     9    22 1   
    21    10    29 1   
    22    11    12 1   
    23    11    30 1   
    24    11    31 1   
    25    12    18 1   
    26    13    14 1   
    27    13    19 1   
    28    13    32 1   
    29    13    33 1   
    30    14    15 1   
    31    14    34 1   
    32    14    35 1   
    33    15    16 1   
    34    15    36 1   
    35    15    37 1   
    36    16    17 1   
    37    16    38 1   
    38    16    39 1   
    39    17    40 1   
    40    17    41 1   
    41    17    42 1   
    42    18    43 1   
    43    19    44 1   
    44    19    45 1   
    45    20    45 2   
@<TRIPOS>SUBSTRUCTURE
     1 UZP         1 TEMP              0 ****  ****    0 ROOT
