@<TRIPOS>MOLECULE
UZP
   45    45     1     0     0
SMALL
bcc


@<TRIPOS>ATOM
      1 C11          5.5430   -13.2640    20.8330 ca         1 UZP      -0.125000
      2 O16          7.1570    -5.6330    20.1250 oh         1 UZP      -0.381100
      3 O17          5.6380    -6.7990    22.0470 o          1 UZP      -0.557100
      4 C03          4.1980    -9.2310    19.9310 c3         1 UZP      -0.158400
      5 C04          4.8700    -9.5450    21.2760 c3         1 UZP      -0.002400
      6 C05          4.8500   -11.0340    21.5300 ca         1 UZP      -0.076300
      7 C06          4.1250   -11.6310    22.5580 ca         1 UZP       0.049400
      8 C08          4.0930   -13.0080    22.7390 ca         1 UZP      -0.116000
      9 C09          4.8040   -13.8130    21.8690 ca         1 UZP       0.035400
     10 C12          5.5530   -11.8900    20.6820 ca         1 UZP      -0.122000
     11 C13          6.2990    -8.9950    21.3320 c3         1 UZP      -0.155400
     12 C14          6.3050    -7.4820    21.2890 c          1 UZP       0.665100
     13 C19          1.1910   -11.3690    19.0510 c3         1 UZP       0.103000
     14 C20          1.1690   -12.4590    17.9920 c3         1 UZP      -0.094400
     15 C21         -0.2170   -13.0800    17.8610 c3         1 UZP      -0.071400
     16 C22         -0.2870   -14.2340    16.8640 c3         1 UZP      -0.074400
     17 C23          0.0370   -13.8350    15.4300 c3         1 UZP      -0.090100
     18 N15          7.1330    -6.9730    20.3610 ns         1 UZP      -0.461400
     19 N18          2.4940   -10.7420    19.1210 ns         1 UZP      -0.572900
     20 O01          1.9190    -9.2010    20.6570 o          1 UZP      -0.591100
     21 CL07         3.2140   -10.6770    23.6840 cl         1 UZP      -0.076400
     22 CL10         4.7650   -15.5290    22.0830 cl         1 UZP      -0.098400
     23 H1           6.0980   -13.8950    20.1530 ha         1 UZP       0.150000
     24 H2           7.8980    -5.2810    20.6360 ho         1 UZP       0.406000
     25 H3           4.7690    -9.6730    19.1110 hc         1 UZP       0.062700
     26 H4           4.1860    -8.1510    19.7660 hc         1 UZP       0.062700
     27 H5           4.2990    -9.0440    22.0570 hc         1 UZP       0.112700
     28 H6           3.5190   -13.4410    23.5470 ha         1 UZP       0.165000
     29 H7           6.1340   -11.4710    19.8690 ha         1 UZP       0.130000
     30 H8           6.7610    -9.2940    22.2770 hc         1 UZP       0.064200
     31 H9           6.9130    -9.4200    20.5350 hc         1 UZP       0.064200
     32 H10          0.4350   -10.6140    18.8200 h1         1 UZP       0.052700
     33 H11          0.9270   -11.7910    20.0260 h1         1 UZP       0.052700
     34 H12          1.8970   -13.2370    18.2470 hc         1 UZP       0.042200
     35 H13          1.4850   -12.0350    17.0350 hc         1 UZP       0.042200
     36 H14         -0.9320   -12.3030    17.5690 hc         1 UZP       0.042700
     37 H15         -0.5410   -13.4390    18.8420 hc         1 UZP       0.042700
     38 H16         -1.2910   -14.6640    16.8980 hc         1 UZP       0.038700
     39 H17          0.3930   -15.0300    17.1860 hc         1 UZP       0.038700
     40 H18         -0.1060   -14.6740    14.7480 hc         1 UZP       0.031367
     41 H19         -0.6100   -13.0230    15.0930 hc         1 UZP       0.031367
     42 H20          1.0690   -13.5000    15.3210 hc         1 UZP       0.031367
     43 H21          7.5700    -7.5400    19.6490 hn         1 UZP       0.333500
     44 H22          3.2410   -11.1360    18.5730 hn         1 UZP       0.309500
     45 C02          2.7630    -9.7140    19.9350 c          1 UZP       0.664100
@<TRIPOS>BOND
     1     1     9 ar  
     2     1    10 ar  
     3     1    23 1   
     4     2    18 1   
     5     2    24 1   
     6     3    12 2   
     7     4     5 1   
     8     4    25 1   
     9     4    26 1   
    10     4    45 1   
    11     5     6 1   
    12     5    11 1   
    13     5    27 1   
    14     6     7 ar  
    15     6    10 ar  
    16     7     8 ar  
    17     7    21 1   
    18     8     9 ar  
    19     8    28 1   
    20     9    22 1   
    21    10    29 1   
    22    11    12 1   
    23    11    30 1   
    24    11    31 1   
    25    12    18 1   
    26    13    14 1   
    27    13    19 1   
    28    13    32 1   
    29    13    33 1   
    30    14    15 1   
    31    14    34 1   
    32    14    35 1   
    33    15    16 1   
    34    15    36 1   
    35    15    37 1   
    36    16    17 1   
    37    16    38 1   
    38    16    39 1   
    39    17    40 1   
    40    17    41 1   
    41    17    42 1   
    42    18    43 1   
    43    19    44 1   
    44    19    45 1   
    45    20    45 2   
@<TRIPOS>SUBSTRUCTURE
     1 UZP         1 TEMP              0 ****  ****    0 ROOT
