@<TRIPOS>MOLECULE
UZQ
   53    55     1     0     0
SMALL
bcc


@<TRIPOS>ATOM
      1 C4          13.7950    -1.4860    15.0130 ca         1 UZQ      -0.108000
      2 C5          13.3200    -2.3540    15.9880 ca         1 UZQ      -0.128600
      3 C6          12.5480    -1.8470    17.0290 ca         1 UZQ      -0.117000
      4 C7          13.6600    -3.8080    15.8490 c          1 UZQ       0.678700
      5 C10         13.9580    -5.9400    17.0350 c3         1 UZQ       0.100000
      6 C13         15.5130    -8.5220    16.1810 c3         1 UZQ      -0.091100
      7 C15         14.5250     1.9510    14.2650 c          1 UZQ       0.724500
      8 C17         13.3550     2.7450    16.3720 c3         1 UZQ       0.126700
      9 C20         13.5440     2.9570    17.8660 c3         1 UZQ      -0.113100
     10 C24          8.9450     0.8780    16.6800 ca         1 UZQ      -0.067000
     11 C26          7.9630    -0.7630    15.2290 ca         1 UZQ      -0.084000
     12 C28          9.9720     0.3500    14.5990 ca         1 UZQ       0.174900
     13 C11         15.4400    -6.2120    17.2780 c3         1 UZQ      -0.101400
     14 N9          13.6430    -4.5280    16.9820 ns         1 UZQ      -0.567900
     15 O8          13.9280    -4.2840    14.7540 o          1 UZQ      -0.596100
     16 C1          12.2560    -0.4950    17.0810 ca         1 UZQ      -0.126000
     17 C2          12.7000     0.3680    16.0890 ca         1 UZQ       0.037600
     18 C3          13.5050    -0.1290    15.0590 ca         1 UZQ       0.066600
     19 N14         13.9850     0.7190    14.0590 ns         1 UZQ      -0.479100
     20 O19         14.8800     2.6520    13.3370 o          1 UZQ      -0.609500
     21 C16         14.6770     2.3530    15.7130 c3         1 UZQ      -0.177400
     22 N18         12.3280     1.7320    16.0930 n          1 UZQ      -0.394000
     23 O22         10.6740     3.2560    16.3260 o          1 UZQ      -0.571100
     24 C23          9.9920     1.0720    15.7810 ca         1 UZQ      -0.190600
     25 C25          7.9440    -0.0420    16.4160 ca         1 UZQ      -0.153000
     26 C27          8.9790    -0.5640    14.3060 ca         1 UZQ      -0.175000
     27 H1          14.4030    -1.8640    14.2010 ha         1 UZQ       0.163000
     28 H2          12.1440    -2.4900    17.8000 ha         1 UZQ       0.136000
     29 H3          13.3670    -6.3780    17.8420 h1         1 UZQ       0.056700
     30 H4          13.6230    -6.4030    16.1080 h1         1 UZQ       0.056700
     31 H5          15.8160    -9.5590    16.3300 hc         1 UZQ       0.034700
     32 H6          14.4620    -8.5320    15.8900 hc         1 UZQ       0.034700
     33 H7          16.0860    -8.1290    15.3390 hc         1 UZQ       0.034700
     34 H8          13.0110     3.6710    15.9130 h1         1 UZQ       0.092700
     35 H9          12.6200     3.2900    18.3370 hc         1 UZQ       0.047367
     36 H10         13.8700     2.0360    18.3530 hc         1 UZQ       0.047367
     37 H11         14.3050     3.7170    18.0440 hc         1 UZQ       0.047367
     38 H12          8.9310     1.4430    17.6030 ha         1 UZQ       0.145000
     39 H13          7.1810    -1.4790    15.0130 ha         1 UZQ       0.139000
     40 H14         15.1590    -8.1040    18.2650 hc         1 UZQ       0.037700
     41 H15         16.7980    -7.8010    17.7420 hc         1 UZQ       0.037700
     42 H16         16.0250    -5.7990    16.4510 hc         1 UZQ       0.046200
     43 H17         15.7500    -5.6760    18.1800 hc         1 UZQ       0.046200
     44 H18         13.5590    -4.0520    17.8650 hn         1 UZQ       0.311500
     45 H19         11.6510    -0.1080    17.8910 ha         1 UZQ       0.144000
     46 H20         13.9980     0.3670    13.1110 hn         1 UZQ       0.334500
     47 H21         15.1560     1.5470    16.2750 hc         1 UZQ       0.075700
     48 H22         15.3400     3.2150    15.7610 hc         1 UZQ       0.075700
     49 H23          7.1480    -0.1930    17.1330 ha         1 UZQ       0.140000
     50 H24          8.9980    -1.1030    13.3680 ha         1 UZQ       0.155000
     51 C21         11.0210     2.1150    16.0870 c          1 UZQ       0.699700
     52 F29         10.9410     0.5560    13.6970 f          1 UZQ      -0.131900
     53 C12         15.7530    -7.6970    17.4400 c3         1 UZQ      -0.070400
@<TRIPOS>BOND
     1     1     2 ar  
     2     1    18 ar  
     3     1    27 1   
     4     2     3 ar  
     5     2     4 1   
     6     3    16 ar  
     7     3    28 1   
     8     4    14 1   
     9     4    15 2   
    10     5    13 1   
    11     5    14 1   
    12     5    29 1   
    13     5    30 1   
    14     6    31 1   
    15     6    32 1   
    16     6    33 1   
    17     6    53 1   
    18     7    19 1   
    19     7    20 2   
    20     7    21 1   
    21     8     9 1   
    22     8    21 1   
    23     8    22 1   
    24     8    34 1   
    25     9    35 1   
    26     9    36 1   
    27     9    37 1   
    28    10    24 ar  
    29    10    25 ar  
    30    10    38 1   
    31    11    25 ar  
    32    11    26 ar  
    33    11    39 1   
    34    12    24 ar  
    35    12    26 ar  
    36    12    52 1   
    37    13    42 1   
    38    13    43 1   
    39    13    53 1   
    40    14    44 1   
    41    16    17 ar  
    42    16    45 1   
    43    17    18 ar  
    44    17    22 1   
    45    18    19 1   
    46    19    46 1   
    47    21    47 1   
    48    21    48 1   
    49    22    51 1   
    50    23    51 2   
    51    24    51 1   
    52    25    49 1   
    53    26    50 1   
    54    40    53 1   
    55    41    53 1   
@<TRIPOS>SUBSTRUCTURE
     1 UZQ         1 TEMP              0 ****  ****    0 ROOT
