@<TRIPOS>MOLECULE
UZQ
   53    55     1     0     0
SMALL
No Charge or Current Charge


@<TRIPOS>ATOM
      1 C4          14.0340    -1.3810    14.9760 ca         1 UZQ      -0.090000
      2 C5          13.5680    -2.3160    15.9240 ca         1 UZQ      -0.128600
      3 C6          12.7420    -1.8470    16.9710 ca         1 UZQ      -0.099000
      4 C7          13.9420    -3.7790    15.7780 c          1 UZQ       0.611700
      5 C10         13.7220    -6.0800    16.7880 c3         1 UZQ       0.100000
      6 C13         15.4960    -8.6680    16.2200 c3         1 UZQ      -0.091100
      7 C15         14.3710     2.2070    14.1120 c          1 UZQ       0.582000
      8 C17         13.3210     2.9750    16.2500 c3         1 UZQ       0.126700
      9 C20         13.6200     3.3470    17.7220 c3         1 UZQ      -0.113100
     10 C24          8.9610     0.7100    16.8850 ca         1 UZQ      -0.049000
     11 C26          8.1440    -1.0620    15.4260 ca         1 UZQ      -0.066000
     12 C28         10.0870     0.2540    14.7790 ca         1 UZQ       0.210000
     13 C11         15.1140    -6.3820    17.3860 c3         1 UZQ      -0.101400
     14 N9          13.4480    -4.6420    16.7340 ns         1 UZQ      -0.500900
     15 O8          14.6430    -4.1840    14.8600 o          1 UZQ      -0.596100
     16 C1          12.4110    -0.4860    17.0640 ca         1 UZQ      -0.108000
     17 C2          12.9280     0.4610    16.1580 ca         1 UZQ      -0.055000
     18 C3          13.7180    -0.0140    15.0770 ca         1 UZQ      -0.026000
     19 N14         14.1710     0.8470    14.0480 ns         1 UZQ      -0.153000
     20 O19         14.3550     2.9240    13.1200 o          1 UZQ      -0.534000
     21 C16         14.6510     2.7380    15.5110 c3         1 UZQ      -0.177400
     22 N18         12.3860     1.8110    16.1770 n          1 UZQ      -0.234400
     23 O22         10.5710     3.1880    16.6170 o          1 UZQ      -0.571100
     24 C23         10.0090     0.9860    15.9820 ca         1 UZQ      -0.190600
     25 C25          8.0390    -0.3160    16.6120 ca         1 UZQ      -0.135000
     26 C27          9.1640    -0.7680    14.5070 ca         1 UZQ      -0.157000
     27 H1          14.6470    -1.7190    14.1420 ha         1 UZQ       0.145000
     28 H2          12.3330    -2.5250    17.7150 ha         1 UZQ       0.118000
     29 H3          12.9490    -6.5590    17.4030 h1         1 UZQ       0.056700
     30 H4          13.6500    -6.4950    15.7740 h1         1 UZQ       0.056700
     31 H5          15.7840    -9.7090    16.4060 hc         1 UZQ       0.034700
     32 H6          14.5280    -8.6720    15.7050 hc         1 UZQ       0.034700
     33 H7          16.2430    -8.2210    15.5540 hc         1 UZQ       0.034700
     34 H8          12.8340     3.8360    15.7710 h1         1 UZQ       0.092700
     35 H9          12.6980     3.6000    18.2580 hc         1 UZQ       0.047367
     36 H10         14.0990     2.5100    18.2460 hc         1 UZQ       0.047367
     37 H11         14.2880     4.2150    17.7750 hc         1 UZQ       0.047367
     38 H12          8.8710     1.2790    17.8090 ha         1 UZQ       0.127000
     39 H13          7.4280    -1.8540    15.2150 ha         1 UZQ       0.121000
     40 H14         14.6520    -8.3480    18.1910 hc         1 UZQ       0.037700
     41 H15         16.3720    -8.0000    18.0770 hc         1 UZQ       0.037700
     42 H16         15.8890    -5.9250    16.7600 hc         1 UZQ       0.046200
     43 H17         15.1830    -5.9050    18.3720 hc         1 UZQ       0.046200
     44 H18         12.8730    -4.2370    17.4610 hn         1 UZQ       0.311500
     45 H19         11.7510    -0.1640    17.8670 ha         1 UZQ       0.126000
     46 H20         14.1400     0.4570    13.1150 hn         1 UZQ       0.168000
     47 H21         15.2140     1.9890    16.0810 hc         1 UZQ       0.075700
     48 H22         15.2140     3.6760    15.4490 hc         1 UZQ       0.075700
     49 H23          7.2430    -0.5320    17.3200 ha         1 UZQ       0.122000
     50 H24          9.2340    -1.3230    13.5740 ha         1 UZQ       0.137000
     51 C21         10.9910     2.0790    16.3050 c          1 UZQ       0.632700
     52 F29         11.0040     0.5660    13.8380 f          1 UZQ      -0.167000
     53 C12         15.4160    -7.8900    17.5510 c3         1 UZQ      -0.070400
@<TRIPOS>BOND
     1     1     2 ar  
     2     1    18 ar  
     3     1    27 1   
     4     2     3 ar  
     5     2     4 1   
     6     3    16 ar  
     7     3    28 1   
     8     4    14 1   
     9     4    15 2   
    10     5    13 1   
    11     5    14 1   
    12     5    29 1   
    13     5    30 1   
    14     6    31 1   
    15     6    32 1   
    16     6    33 1   
    17     6    53 1   
    18     7    19 1   
    19     7    20 2   
    20     7    21 1   
    21     8     9 1   
    22     8    21 1   
    23     8    22 1   
    24     8    34 1   
    25     9    35 1   
    26     9    36 1   
    27     9    37 1   
    28    10    24 ar  
    29    10    25 ar  
    30    10    38 1   
    31    11    25 ar  
    32    11    26 ar  
    33    11    39 1   
    34    12    24 ar  
    35    12    26 ar  
    36    12    52 1   
    37    13    42 1   
    38    13    43 1   
    39    13    53 1   
    40    14    44 1   
    41    16    17 ar  
    42    16    45 1   
    43    17    18 ar  
    44    17    22 1   
    45    18    19 1   
    46    19    46 1   
    47    21    47 1   
    48    21    48 1   
    49    22    51 1   
    50    23    51 2   
    51    24    51 1   
    52    25    49 1   
    53    26    50 1   
    54    40    53 1   
    55    41    53 1   
@<TRIPOS>SUBSTRUCTURE
     1 UZQ         1 TEMP              0 ****  ****    0 ROOT
