@<TRIPOS>MOLECULE
UZS
   26    25     1     0     0
SMALL
bcc


@<TRIPOS>ATOM
      1 O10         15.5190    -7.5170     9.6950 oh         1 UZS      -0.391100
      2 C02         10.8490    -3.1880    12.7790 c3         1 UZS       0.039700
      3 C03          9.6540    -4.1030    12.5530 c3         1 UZS      -0.066400
      4 C04          9.9080    -5.1710    11.4900 c3         1 UZS      -0.074400
      5 C05         11.0260    -6.1470    11.8360 c3         1 UZS      -0.081400
      6 C06         11.1460    -7.2600    10.8020 c3         1 UZS      -0.065400
      7 C07         12.2220    -8.3100    11.1060 c3         1 UZS      -0.160400
      8 C08         13.6210    -7.7390    11.0620 c          1 UZS       0.667100
      9 N09         14.2120    -7.8700     9.8530 ns         1 UZS      -0.455400
     10 O11         14.1440    -7.1580    11.9960 o          1 UZS      -0.568100
     11 S01         10.3790    -1.8760    13.9590 sh         1 UZS      -0.421900
     12 H1          15.5140    -6.6310     9.3090 ho         1 UZS       0.407000
     13 H2          11.6950    -3.7400    13.1880 h1         1 UZS       0.060200
     14 H3          11.1640    -2.7330    11.8390 h1         1 UZS       0.060200
     15 H4           8.7930    -3.5010    12.2520 hc         1 UZS       0.054700
     16 H5           9.3820    -4.5840    13.4980 hc         1 UZS       0.054700
     17 H6          10.1310    -4.6840    10.5350 hc         1 UZS       0.039200
     18 H7           8.9780    -5.7260    11.3360 hc         1 UZS       0.039200
     19 H8          10.8390    -6.5840    12.8230 hc         1 UZS       0.051700
     20 H9          11.9740    -5.6100    11.9160 hc         1 UZS       0.051700
     21 H10         11.3330    -6.8280     9.8140 hc         1 UZS       0.042200
     22 H11         10.1890    -7.7830    10.7290 hc         1 UZS       0.042200
     23 H12         12.1210    -9.1330    10.3960 hc         1 UZS       0.063700
     24 H13         12.0650    -8.7250    12.1030 hc         1 UZS       0.063700
     25 H14         13.8710    -8.5190     9.1580 hn         1 UZS       0.330500
     26 H15         11.5740    -1.2850    14.0640 hs         1 UZS       0.214800
@<TRIPOS>BOND
     1     1     9 1   
     2     1    12 1   
     3     2     3 1   
     4     2    11 1   
     5     2    13 1   
     6     2    14 1   
     7     3     4 1   
     8     3    15 1   
     9     3    16 1   
    10     4     5 1   
    11     4    17 1   
    12     4    18 1   
    13     5     6 1   
    14     5    19 1   
    15     5    20 1   
    16     6     7 1   
    17     6    21 1   
    18     6    22 1   
    19     7     8 1   
    20     7    23 1   
    21     7    24 1   
    22     8     9 1   
    23     8    10 2   
    24     9    25 1   
    25    11    26 1   
@<TRIPOS>SUBSTRUCTURE
     1 UZS         1 TEMP              0 ****  ****    0 ROOT
