@<TRIPOS>MOLECULE
UZS
   26    25     1     0     0
SMALL
No Charge or Current Charge


@<TRIPOS>ATOM
      1 O10         15.8080    -7.7200     9.7860 oh         1 UZS      -0.430100
      2 C02         10.7370    -3.1070    12.8510 c3         1 UZS       0.087600
      3 C03          9.5750    -4.1030    12.6550 c3         1 UZS      -0.066400
      4 C04          9.8180    -5.1560    11.5470 c3         1 UZS      -0.074400
      5 C05         10.9770    -6.1370    11.8430 c3         1 UZS      -0.081400
      6 C06         11.1400    -7.2190    10.7500 c3         1 UZS      -0.065400
      7 C07         12.2400    -8.2730    11.0420 c3         1 UZS      -0.160400
      8 C08         13.6610    -7.6890    11.0130 c          1 UZS       0.600100
      9 N09         14.3790    -7.9540     9.8520 ns         1 UZS      -0.388400
     10 O11         14.1380    -7.0660    11.9530 o          1 UZS      -0.568100
     11 S01         10.3670    -1.8020    14.1130 sh         1 UZS      -0.469800
     12 H1          15.9200    -7.2050     8.9520 ho         1 UZS       0.446000
     13 H2          11.6380    -3.6460    13.1730 h1         1 UZS       0.060200
     14 H3          10.9580    -2.6120    11.8970 h1         1 UZS       0.060200
     15 H4           8.6700    -3.5360    12.4040 hc         1 UZS       0.054700
     16 H5           9.3720    -4.6130    13.6050 hc         1 UZS       0.054700
     17 H6          10.0100    -4.6410    10.5970 hc         1 UZS       0.039200
     18 H7           8.8930    -5.7310    11.4100 hc         1 UZS       0.039200
     19 H8          10.7980    -6.6250    12.8100 hc         1 UZS       0.051700
     20 H9          11.9110    -5.5730    11.9350 hc         1 UZS       0.051700
     21 H10         11.3510    -6.7350     9.7870 hc         1 UZS       0.042200
     22 H11         10.1840    -7.7440    10.6310 hc         1 UZS       0.042200
     23 H12         12.1520    -9.0520    10.2760 hc         1 UZS       0.063700
     24 H13         12.0530    -8.7080    12.0310 hc         1 UZS       0.063700
     25 H14         13.9970    -8.6040     9.1670 hn         1 UZS       0.330500
     26 H15         11.5550    -1.1550    14.0090 hs         1 UZS       0.214800
@<TRIPOS>BOND
     1     1     9 1   
     2     1    12 1   
     3     2     3 1   
     4     2    11 1   
     5     2    13 1   
     6     2    14 1   
     7     3     4 1   
     8     3    15 1   
     9     3    16 1   
    10     4     5 1   
    11     4    17 1   
    12     4    18 1   
    13     5     6 1   
    14     5    19 1   
    15     5    20 1   
    16     6     7 1   
    17     6    21 1   
    18     6    22 1   
    19     7     8 1   
    20     7    23 1   
    21     7    24 1   
    22     8     9 1   
    23     8    10 2   
    24     9    25 1   
    25    11    26 1   
@<TRIPOS>SUBSTRUCTURE
     1 UZS         1 TEMP              0 ****  ****    0 ROOT
