@<TRIPOS>MOLECULE
UZV
   20    19     1     0     0
SMALL
abcg2


@<TRIPOS>ATOM
      1 C02         13.8780    -7.2980    11.1500 c          1 UZV       0.600100
      2 C05         12.9530    -7.9650    12.1430 c3         1 UZV      -0.164400
      3 C06         11.4980    -7.5030    11.9900 c3         1 UZV      -0.066400
      4 C07         11.2810    -5.9960    12.0950 c3         1 UZV      -0.068400
      5 C08         11.7610    -5.4220    13.4190 c3         1 UZV       0.085600
      6 N03         13.8250    -7.8530     9.9210 ns         1 UZV      -0.388400
      7 O01         14.5580    -6.3210    11.4100 o          1 UZV      -0.565100
      8 O04         14.6900    -7.4400     8.9520 oh         1 UZV      -0.428100
      9 S09         11.3070    -3.6560    13.4980 sh         1 UZV      -0.462800
     10 H1          12.9890    -9.0520    12.0280 hc         1 UZV       0.065200
     11 H2          13.3250    -7.7420    13.1430 hc         1 UZV       0.065200
     12 H3          11.1070    -7.8480    11.0300 hc         1 UZV       0.045200
     13 H4          10.9070    -8.0060    12.7590 hc         1 UZV       0.045200
     14 H5          11.7800    -5.4790    11.2710 hc         1 UZV       0.059700
     15 H6          10.2130    -5.8000    11.9770 hc         1 UZV       0.059700
     16 H7          11.3030    -5.9520    14.2560 h1         1 UZV       0.062700
     17 H8          12.8420    -5.5100    13.5070 h1         1 UZV       0.062700
     18 H9          13.4240    -8.7650     9.7620 hn         1 UZV       0.330500
     19 H10         14.1920    -6.8360     8.3860 ho         1 UZV       0.447000
     20 H11         11.9380    -3.3540    14.6380 hs         1 UZV       0.214800
@<TRIPOS>BOND
     1     1     2 1   
     2     1     6 1   
     3     1     7 2   
     4     2     3 1   
     5     2    10 1   
     6     2    11 1   
     7     3     4 1   
     8     3    12 1   
     9     3    13 1   
    10     4     5 1   
    11     4    14 1   
    12     4    15 1   
    13     5     9 1   
    14     5    16 1   
    15     5    17 1   
    16     6     8 1   
    17     6    18 1   
    18     8    19 1   
    19     9    20 1   
@<TRIPOS>SUBSTRUCTURE
     1 UZV         1 TEMP              0 ****  ****    0 ROOT
