@<TRIPOS>MOLECULE
UZV
   20    19     1     0     0
SMALL
No Charge or Current Charge


@<TRIPOS>ATOM
      1 C02         13.7800    -7.1900    10.8970 c          1 UZV       0.600100
      2 C05         12.9390    -7.8470    12.0010 c3         1 UZV      -0.164400
      3 C06         11.4510    -7.3980    11.9890 c3         1 UZV      -0.066400
      4 C07         11.1930    -5.8880    12.2270 c3         1 UZV      -0.068400
      5 C08         11.6880    -5.3650    13.5910 c3         1 UZV       0.085600
      6 N03         14.0350    -7.9970     9.7930 ns         1 UZV      -0.388400
      7 O01         14.2210    -6.0520    10.9950 o          1 UZV      -0.565100
      8 O04         15.0340    -7.6280     8.8110 oh         1 UZV      -0.428100
      9 S09         11.2390    -3.5930    13.8930 sh         1 UZV      -0.462800
     10 H1          12.9460    -8.9350    11.8610 hc         1 UZV       0.065200
     11 H2          13.3790    -7.6070    12.9750 hc         1 UZV       0.065200
     12 H3          11.0070    -7.6790    11.0260 hc         1 UZV       0.045200
     13 H4          10.9080    -7.9690    12.7530 hc         1 UZV       0.045200
     14 H5          11.6510    -5.2990    11.4240 hc         1 UZV       0.059700
     15 H6          10.1130    -5.7100    12.1600 hc         1 UZV       0.059700
     16 H7          11.2530    -5.9730    14.3950 h1         1 UZV       0.062700
     17 H8          12.7800    -5.4540    13.6480 h1         1 UZV       0.062700
     18 H9          13.7790    -8.9830     9.8270 hn         1 UZV       0.330500
     19 H10         14.5630    -7.7300     7.9500 ho         1 UZV       0.447000
     20 H11         11.8120    -3.5020    15.1200 hs         1 UZV       0.214800
@<TRIPOS>BOND
     1     1     2 1   
     2     1     6 1   
     3     1     7 2   
     4     2     3 1   
     5     2    10 1   
     6     2    11 1   
     7     3     4 1   
     8     3    12 1   
     9     3    13 1   
    10     4     5 1   
    11     4    14 1   
    12     4    15 1   
    13     5     9 1   
    14     5    16 1   
    15     5    17 1   
    16     6     8 1   
    17     6    18 1   
    18     8    19 1   
    19     9    20 1   
@<TRIPOS>SUBSTRUCTURE
     1 UZV         1 TEMP              0 ****  ****    0 ROOT
