@<TRIPOS>MOLECULE
UZW
   32    34     1     0     0
SMALL
No Charge or Current Charge


@<TRIPOS>ATOM
      1 C4          -4.1560   -20.9460    12.9710 ca         1 UZW      -0.104000
      2 C5          -5.3490   -21.5580    13.4060 ca         1 UZW      -0.095300
      3 C6          -6.6140   -21.5780    12.5410 c3         1 UZW       0.127900
      4 C11         -4.5430   -25.9790    10.0330 cc         1 UZW      -0.251000
      5 C7          -5.9060   -22.2990    10.1400 cc         1 UZW       0.495000
      6 C8          -5.4470   -23.6560    10.3370 cc         1 UZW      -0.304500
      7 C9          -5.3820   -24.3740    11.5130 cd         1 UZW      -0.097000
      8 C10         -4.8700   -25.6860    11.3330 cd         1 UZW      -0.138000
      9 C12         -5.3780   -22.1570    14.6780 ca         1 UZW      -0.104000
     10 C13         -4.2350   -22.1610    15.4950 ca         1 UZW      -0.068000
     11 N1          -0.6400   -21.0440    15.4630 ns         1 UZW      -0.391400
     12 N2          -6.3940   -21.4170    11.0910 na         1 UZW      -0.075700
     13 C3          -3.0100   -20.9480    13.7860 ca         1 UZW      -0.068000
     14 N3          -6.7140   -20.2380    10.4950 nc         1 UZW      -0.215800
     15 O1          -1.8670   -22.0460    17.1070 o          1 UZW      -0.566100
     16 C1          -1.8170   -21.5860    15.9720 c          1 UZW       0.618700
     17 O2           0.6260   -21.2360    16.1420 oh         1 UZW      -0.413100
     18 C2          -3.0320   -21.5610    15.0620 ca         1 UZW      -0.145600
     19 N4          -6.4270   -20.4040     9.2350 nd         1 UZW      -0.032000
     20 N5          -5.9330   -21.6590     8.9880 nd         1 UZW      -0.401000
     21 S1          -4.8640   -24.6100     8.9750 ss         1 UZW       0.330000
     22 H1          -4.1040   -20.4590    11.9990 ha         1 UZW       0.126000
     23 H2          -7.2650   -20.7620    12.8800 h1         1 UZW       0.085700
     24 H3          -7.1790   -22.5030    12.7080 h1         1 UZW       0.085700
     25 H5          -5.6730   -24.0180    12.4910 ha         1 UZW       0.136000
     26 H6          -4.7470   -26.3920    12.1500 ha         1 UZW       0.140000
     27 H7          -6.2910   -22.6280    15.0380 ha         1 UZW       0.126000
     28 H8          -4.2910   -22.6370    16.4720 ha         1 UZW       0.130000
     29 H9          -0.5850   -20.8200    14.4720 hn         1 UZW       0.343500
     30 H10         -2.1160   -20.4590    13.4080 ha         1 UZW       0.130000
     31 H11          1.0050   -20.3260    16.1910 ho         1 UZW       0.442000
     32 H4          -4.1380   -26.8910     9.6150 h4         1 UZW       0.156000
@<TRIPOS>BOND
     1     1     2 ar  
     2     1    13 ar  
     3     1    22 1   
     4     2     3 1   
     5     2     9 ar  
     6     3    12 1   
     7     3    23 1   
     8     3    24 1   
     9     4     8 2   
    10     4    21 1   
    11     4    32 1   
    12     5     6 1   
    13     5    12 1   
    14     5    20 2   
    15     6     7 2   
    16     6    21 1   
    17     7     8 1   
    18     7    25 1   
    19     8    26 1   
    20     9    10 ar  
    21     9    27 1   
    22    10    18 ar  
    23    10    28 1   
    24    11    16 1   
    25    11    17 1   
    26    11    29 1   
    27    12    14 1   
    28    13    18 ar  
    29    13    30 1   
    30    14    19 2   
    31    15    16 2   
    32    16    18 1   
    33    17    31 1   
    34    19    20 1   
@<TRIPOS>SUBSTRUCTURE
     1 UZW         1 TEMP              0 ****  ****    0 ROOT
