@<TRIPOS>MOLECULE
UZW
   32    34     1     0     0
SMALL
bcc


@<TRIPOS>ATOM
      1 C4          -4.0090   -20.9370    12.8690 ca         1 UZW      -0.122000
      2 C5          -5.1690   -21.5470    13.3290 ca         1 UZW      -0.095300
      3 C6          -6.4560   -21.5070    12.5450 c3         1 UZW       0.098600
      4 C11         -5.0720   -26.1270     9.9940 cc         1 UZW      -0.124100
      5 C7          -5.8850   -22.3660    10.2200 cc         1 UZW       0.495000
      6 C8          -5.5890   -23.7610    10.4320 cc         1 UZW      -0.159600
      7 C9          -5.4270   -24.4870    11.5820 cd         1 UZW      -0.115000
      8 C10         -5.1310   -25.8470    11.3260 cd         1 UZW      -0.156000
      9 C12         -5.1540   -22.1850    14.5660 ca         1 UZW      -0.122000
     10 C13         -3.9990   -22.2190    15.3270 ca         1 UZW      -0.086000
     11 N1          -0.8450   -20.5900    15.7070 ns         1 UZW      -0.458400
     12 N2          -6.2560   -21.4380    11.1140 na         1 UZW      -0.046400
     13 C3          -2.8530   -20.9610    13.6350 ca         1 UZW      -0.086000
     14 N3          -6.4310   -20.2900    10.4660 nc         1 UZW      -0.215800
     15 O1          -1.3470   -22.6940    16.3630 o          1 UZW      -0.566100
     16 C1          -1.6080   -21.6970    15.7130 c          1 UZW       0.685700
     17 O2           0.3880   -20.6010    16.2780 oh         1 UZW      -0.374100
     18 C2          -2.8400   -21.5950    14.8740 ca         1 UZW      -0.145600
     19 N4          -6.1880   -20.5140     9.2380 nd         1 UZW      -0.032000
     20 N5          -5.8470   -21.7810     9.0410 nd         1 UZW      -0.401000
     21 S1          -5.3720   -24.7500     9.0340 ss         1 UZW       0.040200
     22 H1          -3.9840   -20.4400    11.9070 ha         1 UZW       0.144000
     23 H2          -7.0360   -20.6240    12.8140 h1         1 UZW       0.085700
     24 H3          -7.0800   -22.3740    12.7680 h1         1 UZW       0.085700
     25 H5          -5.4950   -24.0840    12.5800 ha         1 UZW       0.154000
     26 H6          -4.9680   -26.5820    12.1010 ha         1 UZW       0.158000
     27 H7          -6.0500   -22.6720    14.9330 ha         1 UZW       0.144000
     28 H8          -4.0030   -22.7310    16.2800 ha         1 UZW       0.148000
     29 H9          -1.0760   -19.7500    15.1950 hn         1 UZW       0.343500
     30 H10         -1.9590   -20.5000    13.2370 ha         1 UZW       0.148000
     31 H11          0.2710   -20.3100    17.1930 ho         1 UZW       0.403000
     32 H4          -4.8650   -27.0780     9.5260 h4         1 UZW       0.174000
@<TRIPOS>BOND
     1     1     2 ar  
     2     1    13 ar  
     3     1    22 1   
     4     2     3 1   
     5     2     9 ar  
     6     3    12 1   
     7     3    23 1   
     8     3    24 1   
     9     4     8 2   
    10     4    21 1   
    11     4    32 1   
    12     5     6 1   
    13     5    12 1   
    14     5    20 2   
    15     6     7 2   
    16     6    21 1   
    17     7     8 1   
    18     7    25 1   
    19     8    26 1   
    20     9    10 ar  
    21     9    27 1   
    22    10    18 ar  
    23    10    28 1   
    24    11    16 1   
    25    11    17 1   
    26    11    29 1   
    27    12    14 1   
    28    13    18 ar  
    29    13    30 1   
    30    14    19 2   
    31    15    16 2   
    32    16    18 1   
    33    17    31 1   
    34    19    20 1   
@<TRIPOS>SUBSTRUCTURE
     1 UZW         1 TEMP              0 ****  ****    0 ROOT
