@<TRIPOS>MOLECULE
UZX
   32    33     1     0     0
SMALL
No Charge or Current Charge


@<TRIPOS>ATOM
      1 CAK        -22.1030    -8.9850   -31.0130 ca         1 UZX      -0.155000
      2 CAQ        -23.1570    -9.2370   -30.1210 ca         1 UZX       0.155500
      3 ClAD       -24.3040   -10.5260   -30.4620 cl         1 UZX      -0.192000
      4 CAJ        -23.3000    -8.4660   -28.9610 ca         1 UZX      -0.131000
      5 CAR        -22.3820    -7.4410   -28.6950 ca         1 UZX       0.155500
      6 ClAE       -22.5530    -6.4710   -27.2380 cl         1 UZX      -0.192000
      7 CAL        -21.3250    -7.1840   -29.5840 ca         1 UZX      -0.155000
      8 CAS        -21.1760    -7.9560   -30.7580 ca         1 UZX       0.021000
      9 NAM        -20.1330    -7.7600   -31.7050 ns         1 UZX      -0.159000
     10 CAP        -19.1070    -6.8290   -31.7870 c          1 UZX       0.672100
     11 OAC        -18.9300    -5.9270   -30.9770 o          1 UZX      -0.603100
     12 NAN        -18.3210    -7.0440   -32.9070 ns         1 UZX      -0.176000
     13 CAT        -17.1630    -6.3980   -33.4270 ca         1 UZX       0.043000
     14 CAH        -16.4700    -5.4190   -32.6780 ca         1 UZX      -0.133000
     15 CAF        -15.3330    -4.7830   -33.1940 ca         1 UZX      -0.062000
     16 CAG        -14.8660    -5.1190   -34.4680 ca         1 UZX      -0.141000
     17 CAI        -15.5310    -6.0930   -35.2260 ca         1 UZX      -0.066000
     18 CAU        -16.6850    -6.7530   -34.7260 ca         1 UZX      -0.209600
     19 CAO        -17.3730    -7.8120   -35.5830 c          1 UZX       0.629700
     20 OAB        -18.3100    -8.4940   -35.2030 o          1 UZX      -0.644100
     21 NAA        -16.9130    -8.0190   -36.8340 nt         1 UZX      -0.591000
     22 H1         -22.0100    -9.5950   -31.9080 ha         1 UZX       0.148500
     23 H2         -24.1150    -8.6610   -28.2710 ha         1 UZX       0.147000
     24 H3         -20.6350    -6.3840   -29.3370 ha         1 UZX       0.148500
     25 H4         -20.1430    -8.4310   -32.4630 hn         1 UZX       0.159000
     26 H5         -18.6320    -7.8150   -33.4840 hn         1 UZX       0.193000
     27 H6         -16.7900    -5.1370   -31.6810 ha         1 UZX       0.143000
     28 H7         -14.8120    -4.0320   -32.6040 ha         1 UZX       0.120000
     29 H8         -13.9820    -4.6280   -34.8690 ha         1 UZX       0.120000
     30 H9         -15.1240    -6.3270   -36.2060 ha         1 UZX       0.111000
     31 H10        -17.3580    -8.7190   -37.4080 hn         1 UZX       0.320000
     32 H11        -16.1450    -7.4750   -37.1910 hn         1 UZX       0.320000
@<TRIPOS>BOND
     1     1     2 ar  
     2     1     8 ar  
     3     1    22 1   
     4     2     3 1   
     5     2     4 ar  
     6     4     5 ar  
     7     4    23 1   
     8     5     6 1   
     9     5     7 ar  
    10     7     8 ar  
    11     7    24 1   
    12     8     9 1   
    13     9    10 1   
    14     9    25 1   
    15    10    11 2   
    16    10    12 1   
    17    12    13 1   
    18    12    26 1   
    19    13    14 ar  
    20    13    18 ar  
    21    14    15 ar  
    22    14    27 1   
    23    15    16 ar  
    24    15    28 1   
    25    16    17 ar  
    26    16    29 1   
    27    17    18 ar  
    28    17    30 1   
    29    18    19 1   
    30    19    20 2   
    31    19    21 1   
    32    21    31 1   
    33    21    32 1   
@<TRIPOS>SUBSTRUCTURE
     1 UZX         1 TEMP              0 ****  ****    0 ROOT
