@<TRIPOS>MOLECULE
UZX
   32    33     1     0     0
SMALL
abcg2


@<TRIPOS>ATOM
      1 CAK        -21.7420    -9.2470   -30.6240 ca         1 UZX      -0.155000
      2 CAQ        -22.8190    -9.3060   -29.7640 ca         1 UZX       0.155500
      3 CLAD       -23.6300   -10.8180   -29.5410 cl         1 UZX      -0.192000
      4 CAJ        -23.2730    -8.1940   -29.0700 ca         1 UZX      -0.131000
      5 CAR        -22.5910    -7.0080   -29.2800 ca         1 UZX       0.155500
      6 CLAE       -23.1270    -5.5910   -28.4420 cl         1 UZX      -0.192000
      7 CAL        -21.5040    -6.8970   -30.1310 ca         1 UZX      -0.155000
      8 CAS        -21.0690    -8.0350   -30.8140 ca         1 UZX       0.021000
      9 NAM        -20.0040    -8.0570   -31.7030 ns         1 UZX      -0.159000
     10 CAP        -19.0830    -7.0680   -31.9550 c          1 UZX       0.672100
     11 OAC        -19.0820    -5.9870   -31.4000 o          1 UZX      -0.603100
     12 NAN        -18.1720    -7.4510   -32.9020 ns         1 UZX      -0.176000
     13 CAT        -17.0940    -6.6870   -33.3450 ca         1 UZX       0.043000
     14 CAH        -16.3680    -5.8740   -32.4730 ca         1 UZX      -0.133000
     15 CAF        -15.2690    -5.1630   -32.9210 ca         1 UZX      -0.062000
     16 CAG        -14.8580    -5.2530   -34.2440 ca         1 UZX      -0.141000
     17 CAI        -15.5700    -6.0570   -35.1140 ca         1 UZX      -0.066000
     18 CAU        -16.6940    -6.7680   -34.6930 ca         1 UZX      -0.209600
     19 CAO        -17.4230    -7.6480   -35.6570 c          1 UZX       0.629700
     20 OAB        -17.9570    -8.6960   -35.2980 o          1 UZX      -0.644100
     21 NAA        -17.4510    -7.2350   -36.9290 nt         1 UZX      -0.591000
     22 H1         -21.4170   -10.1380   -31.1460 ha         1 UZX       0.148500
     23 H2         -24.1180    -8.2510   -28.3990 ha         1 UZX       0.147000
     24 H3         -21.0140    -5.9470   -30.2550 ha         1 UZX       0.148500
     25 H4         -19.8570    -8.9470   -32.1560 hn         1 UZX       0.159000
     26 H5         -18.3700    -8.2520   -33.4930 hn         1 UZX       0.193000
     27 H6         -16.6460    -5.8140   -31.4320 ha         1 UZX       0.143000
     28 H7         -14.7170    -4.5490   -32.2210 ha         1 UZX       0.120000
     29 H8         -13.9860    -4.7150   -34.5900 ha         1 UZX       0.120000
     30 H9         -15.2290    -6.1490   -36.1370 ha         1 UZX       0.111000
     31 H10        -17.9170    -7.7950   -37.6250 hn         1 UZX       0.320000
     32 H11        -17.1280    -6.3260   -37.2140 hn         1 UZX       0.320000
@<TRIPOS>BOND
     1     1     2 ar  
     2     1     8 ar  
     3     1    22 1   
     4     2     3 1   
     5     2     4 ar  
     6     4     5 ar  
     7     4    23 1   
     8     5     6 1   
     9     5     7 ar  
    10     7     8 ar  
    11     7    24 1   
    12     8     9 1   
    13     9    10 1   
    14     9    25 1   
    15    10    11 2   
    16    10    12 1   
    17    12    13 1   
    18    12    26 1   
    19    13    14 ar  
    20    13    18 ar  
    21    14    15 ar  
    22    14    27 1   
    23    15    16 ar  
    24    15    28 1   
    25    16    17 ar  
    26    16    29 1   
    27    17    18 ar  
    28    17    30 1   
    29    18    19 1   
    30    19    20 2   
    31    19    21 1   
    32    21    31 1   
    33    21    32 1   
@<TRIPOS>SUBSTRUCTURE
     1 UZX         1 TEMP              0 ****  ****    0 ROOT
