@<TRIPOS>MOLECULE
UZY
   23    22     1     0     0
SMALL
abcg2


@<TRIPOS>ATOM
      1 C02         12.8730    -7.5990    11.0760 c          1 UZY       0.585100
      2 C05         12.1260    -7.9860    12.3240 c3         1 UZY      -0.146400
      3 C06         10.8120    -7.2230    12.5100 c3         1 UZY      -0.062400
      4 C07         10.9570    -5.7360    12.8120 c3         1 UZY      -0.080400
      5 C08          9.6130    -5.1120    13.1730 c3         1 UZY      -0.064400
      6 C09          9.6540    -3.6070    13.3850 c3         1 UZY       0.091600
      7 N03         12.9020    -8.5360    10.1290 ns         1 UZY      -0.382400
      8 O01         13.4190    -6.5110    10.8960 o          1 UZY      -0.619100
      9 O04         13.5390    -8.3080     8.9390 oh         1 UZY      -0.444100
     10 S10         10.7430    -3.1950    14.7950 sh         1 UZY      -0.463800
     11 H1          11.9140    -9.0570    12.3170 hc         1 UZY       0.063200
     12 H2          12.7860    -7.8030    13.1760 hc         1 UZY       0.063200
     13 H3          10.1790    -7.3630    11.6290 hc         1 UZY       0.041200
     14 H4          10.2820    -7.7000    13.3390 hc         1 UZY       0.041200
     15 H5          11.6680    -5.6060    13.6330 hc         1 UZY       0.062200
     16 H6          11.3790    -5.2090    11.9530 hc         1 UZY       0.062200
     17 H7           8.9000    -5.3030    12.3660 hc         1 UZY       0.045700
     18 H8           9.2050    -5.5970    14.0650 hc         1 UZY       0.045700
     19 H9          10.0200    -3.1040    12.4890 h1         1 UZY       0.058200
     20 H10          8.6540    -3.2330    13.5990 h1         1 UZY       0.058200
     21 H11         12.5080    -9.4600    10.2000 hn         1 UZY       0.358500
     22 H12         13.9060    -7.4150     9.0420 ho         1 UZY       0.476000
     23 H13         10.4450    -1.8940    14.8720 hs         1 UZY       0.209800
@<TRIPOS>BOND
     1     1     2 1   
     2     1     7 1   
     3     1     8 2   
     4     2     3 1   
     5     2    11 1   
     6     2    12 1   
     7     3     4 1   
     8     3    13 1   
     9     3    14 1   
    10     4     5 1   
    11     4    15 1   
    12     4    16 1   
    13     5     6 1   
    14     5    17 1   
    15     5    18 1   
    16     6    10 1   
    17     6    19 1   
    18     6    20 1   
    19     7     9 1   
    20     7    21 1   
    21     9    22 1   
    22    10    23 1   
@<TRIPOS>SUBSTRUCTURE
     1 UZY         1 TEMP              0 ****  ****    0 ROOT
