@<TRIPOS>MOLECULE
UZY
   23    22     1     0     0
SMALL
No Charge or Current Charge


@<TRIPOS>ATOM
      1 C02         12.8600    -7.5750    11.0320 c          1 UZY       0.585100
      2 C05         12.1790    -8.0010    12.3410 c3         1 UZY      -0.146400
      3 C06         10.8250    -7.2860    12.5840 c3         1 UZY      -0.062400
      4 C07         10.9370    -5.7680    12.8580 c3         1 UZY      -0.080400
      5 C08          9.5720    -5.1110    13.1700 c3         1 UZY      -0.064400
      6 C09          9.6510    -3.5880    13.4100 c3         1 UZY       0.091600
      7 N03         12.7650    -8.4750     9.9830 ns         1 UZY      -0.382400
      8 O01         13.4940    -6.5340    10.9120 o          1 UZY      -0.619100
      9 O04         13.5320    -8.2720     8.7730 oh         1 UZY      -0.444100
     10 S10         10.6090    -3.1100    14.9250 sh         1 UZY      -0.463800
     11 H1          11.9760    -9.0780    12.3090 hc         1 UZY       0.063200
     12 H2          12.8490    -7.7780    13.1810 hc         1 UZY       0.063200
     13 H3          10.1690    -7.4540    11.7200 hc         1 UZY       0.041200
     14 H4          10.3350    -7.7610    13.4440 hc         1 UZY       0.041200
     15 H5          11.6210    -5.6060    13.7010 hc         1 UZY       0.062200
     16 H6          11.3780    -5.2670    11.9880 hc         1 UZY       0.062200
     17 H7           8.8890    -5.2940    12.3320 hc         1 UZY       0.045700
     18 H8           9.1260    -5.5880    14.0520 hc         1 UZY       0.045700
     19 H9          10.1100    -3.1040    12.5380 h1         1 UZY       0.058200
     20 H10          8.6330    -3.1910    13.5160 h1         1 UZY       0.058200
     21 H11         12.3840    -9.4080    10.1360 hn         1 UZY       0.358500
     22 H12         14.1430    -7.5360     9.0280 ho         1 UZY       0.476000
     23 H13         10.4450    -1.7710    14.7870 hs         1 UZY       0.209800
@<TRIPOS>BOND
     1     1     2 1   
     2     1     7 1   
     3     1     8 2   
     4     2     3 1   
     5     2    11 1   
     6     2    12 1   
     7     3     4 1   
     8     3    13 1   
     9     3    14 1   
    10     4     5 1   
    11     4    15 1   
    12     4    16 1   
    13     5     6 1   
    14     5    17 1   
    15     5    18 1   
    16     6    10 1   
    17     6    19 1   
    18     6    20 1   
    19     7     9 1   
    20     7    21 1   
    21     9    22 1   
    22    10    23 1   
@<TRIPOS>SUBSTRUCTURE
     1 UZY         1 TEMP              0 ****  ****    0 ROOT
