@<TRIPOS>MOLECULE
UZZ
  105   106     1     0     0
SMALL
bcc


@<TRIPOS>ATOM
      1 N1           2.5120    -5.2020   -21.1450 n2         1 UZZ      -0.905100
      2 C7           9.1670    -5.3690   -14.9150 c          1 UZZ       0.649100
      3 C8           8.4010    -4.8840   -13.6800 c3         1 UZZ       0.029700
      4 N2           2.6190    -6.2830   -19.0320 nv         1 UZZ      -0.973800
      5 C9           8.6780    -5.7300   -12.4440 c3         1 UZZ      -0.080400
      6 O1           4.5360   -11.1390   -18.5640 o          1 UZZ      -0.589100
      7 C1           5.3590    -5.6540   -18.9140 c3         1 UZZ       0.172500
      8 O5           9.3790    -6.5550   -15.1160 o          1 UZZ      -0.594100
      9 C5           8.9540    -4.3340   -18.1660 c3         1 UZZ      -0.100400
     10 C6          10.0170    -4.5910   -17.1020 c3         1 UZZ       0.099000
     11 N3           9.5190    -4.3850   -15.7580 ns         1 UZZ      -0.565900
     12 C4           7.7380    -5.2420   -18.0360 c3         1 UZZ      -0.073400
     13 O4           6.8310    -2.7080   -14.5460 o          1 UZZ      -0.614100
     14 C3           6.7230    -4.9930   -19.1440 c3         1 UZZ      -0.083400
     15 O3           3.2640    -5.8290   -16.0460 o          1 UZZ      -0.641100
     16 C2           3.1430    -5.5570   -20.0880 c2         1 UZZ       0.804100
     17 N4           7.0410    -2.2140    -9.2430 n8         1 UZZ      -0.887800
     18 N            4.4810    -5.2840   -19.9930 nu         1 UZZ      -0.900200
     19 C            5.5080    -7.1660   -18.7600 c          1 UZZ       0.648100
     20 O            5.7490    -7.6750   -17.6720 o          1 UZZ      -0.611100
     21 C10          7.8070    -5.3660   -11.2430 c3         1 UZZ      -0.070400
     22 C11          7.8750    -3.9050   -10.8180 c3         1 UZZ      -0.086400
     23 C12          7.0390    -3.6310    -9.5790 c3         1 UZZ       0.149800
     24 C13          6.3090    -3.8000   -14.3770 c          1 UZZ       0.659100
     25 C14          4.8080    -3.9780   -14.6020 c3         1 UZZ       0.026700
     26 C15          4.0200    -2.8120   -13.9990 c3         1 UZZ      -0.085400
     27 C16          4.0710    -2.7350   -12.4770 c3         1 UZZ      -0.078400
     28 C17          3.3590    -1.5000   -11.9430 c3         1 UZZ      -0.074400
     29 C18          3.3520    -1.4450   -10.4240 c3         1 UZZ       0.144800
     30 C19          3.5330    -6.0620   -14.8760 c          1 UZZ       0.693100
     31 C20          2.9840    -7.2780   -14.1540 c3         1 UZZ      -0.158700
     32 C21          1.4520    -7.2210   -14.1660 c3         1 UZZ      -0.019100
     33 C22          0.9520    -5.9480   -13.5360 ca         1 UZZ      -0.095300
     34 C23          1.0700    -5.7540   -12.1600 ca         1 UZZ      -0.127000
     35 C24          0.6730    -4.5620   -11.5710 ca         1 UZZ      -0.129000
     36 C25          0.1500    -3.5390   -12.3520 ca         1 UZZ      -0.122000
     37 C26          0.0240    -3.7220   -13.7220 ca         1 UZZ      -0.129000
     38 C27          0.4220    -4.9180   -14.3080 ca         1 UZZ      -0.127000
     39 C28          3.5530    -8.5880   -14.7170 c3         1 UZZ       0.115000
     40 C29          2.3050    -9.7140   -16.5140 c          1 UZZ       0.655100
     41 C30          2.1440    -9.8400   -18.0260 c3         1 UZZ       0.018000
     42 C31          4.3620   -10.0120   -18.9990 c          1 UZZ       0.654100
     43 C32          5.4440    -9.3340   -19.8330 c3         1 UZZ       0.019000
     44 N10          5.3650    -7.8990   -19.8730 ns         1 UZZ      -0.564900
     45 N5           6.9900    -4.8950   -14.0070 ns         1 UZZ      -0.563900
     46 N6           2.6500    -0.2610    -9.9470 n8         1 UZZ      -0.887800
     47 N7           4.3200    -5.2560   -14.1360 ns         1 UZZ      -0.571900
     48 N8           3.2460    -8.8570   -16.0980 ns         1 UZZ      -0.557900
     49 N9           3.2220    -9.3220   -18.8220 ns         1 UZZ      -0.582900
     50 O2           1.5700   -10.3480   -15.7720 o          1 UZZ      -0.616100
     51 H1           1.5300    -5.4360   -21.0730 hn         1 UZZ       0.386400
     52 H2           8.6750    -3.8480   -13.4750 h1         1 UZZ       0.083700
     53 H3           2.9340    -6.0490   -18.0970 hn         1 UZZ       0.413300
     54 H4           1.6120    -6.3480   -19.0530 hn         1 UZZ       0.413300
     55 H5           8.5370    -6.7860   -12.6830 hc         1 UZZ       0.063700
     56 H6           9.7330    -5.6100   -12.1850 hc         1 UZZ       0.063700
     57 H7           4.9810    -5.2930   -17.9510 h1         1 UZZ       0.084700
     58 H8           9.4180    -4.4680   -19.1470 hc         1 UZZ       0.044200
     59 H9           8.6380    -3.2870   -18.1160 hc         1 UZZ       0.044200
     60 H10         10.3900    -5.6120   -17.1750 h1         1 UZZ       0.060700
     61 H11         10.8680    -3.9270   -17.2640 h1         1 UZZ       0.060700
     62 H12          9.2450    -3.4440   -15.5180 hn         1 UZZ       0.323500
     63 H13          7.2600    -5.0770   -17.0670 hc         1 UZZ       0.059200
     64 H14          8.0690    -6.2830   -18.0470 hc         1 UZZ       0.059200
     65 H15          7.1280    -5.3190   -20.1070 hc         1 UZZ       0.048700
     66 H16          6.5420    -3.9170   -19.2290 hc         1 UZZ       0.048700
     67 H17          6.4690    -2.0620    -8.4220 hn         1 UZZ       0.337800
     68 H18          7.9780    -1.9330    -8.9780 hn         1 UZZ       0.337800
     69 H20          4.8520    -4.7150   -20.7370 hn         1 UZZ       0.455800
     70 H21          6.7650    -5.6300   -11.4480 hc         1 UZZ       0.036700
     71 H22          8.1130    -6.0000   -10.4060 hc         1 UZZ       0.036700
     72 H23          8.9170    -3.6240   -10.6270 hc         1 UZZ       0.051700
     73 H24          7.5210    -3.2490   -11.6190 hc         1 UZZ       0.051700
     74 H25          6.0050    -3.9280    -9.7790 h1         1 UZZ       0.024700
     75 H26          7.3910    -4.2770    -8.7610 h1         1 UZZ       0.024700
     76 H27          4.6680    -3.9600   -15.6860 h1         1 UZZ       0.099700
     77 H28          4.3940    -1.8830   -14.4310 hc         1 UZZ       0.064700
     78 H29          2.9810    -2.9080   -14.3260 hc         1 UZZ       0.064700
     79 H30          3.6040    -3.6230   -12.0410 hc         1 UZZ       0.039700
     80 H31          5.1110    -2.7280   -12.1310 hc         1 UZZ       0.039700
     81 H32          3.8430    -0.6010   -12.3400 hc         1 UZZ       0.048200
     82 H33          2.3260    -1.4850   -12.3050 hc         1 UZZ       0.048200
     83 H34          2.8320    -2.3280   -10.0410 h1         1 UZZ       0.030200
     84 H35          4.3890    -1.5160   -10.0620 h1         1 UZZ       0.030200
     85 H36          3.3120    -7.2500   -13.1100 hc         1 UZZ       0.053700
     86 H37          1.0860    -7.3060   -15.1910 hc         1 UZZ       0.070200
     87 H38          1.0740    -8.0880   -13.6190 hc         1 UZZ       0.070200
     88 H39          1.4780    -6.5460   -11.5410 ha         1 UZZ       0.129000
     89 H40          0.7730    -4.4310   -10.5010 ha         1 UZZ       0.131500
     90 H41         -0.1590    -2.6070   -11.8950 ha         1 UZZ       0.139000
     91 H42         -0.3870    -2.9330   -14.3390 ha         1 UZZ       0.131500
     92 H43          0.3210    -5.0500   -15.3780 ha         1 UZZ       0.129000
     93 H44          3.1770    -9.4080   -14.1060 h1         1 UZZ       0.065200
     94 H45          4.6390    -8.5790   -14.6030 h1         1 UZZ       0.065200
     95 H46          1.2340    -9.3010   -18.2980 h1         1 UZZ       0.078200
     96 H47          1.9640   -10.8910   -18.2520 h1         1 UZZ       0.078200
     97 H48          5.3620    -9.7040   -20.8550 h1         1 UZZ       0.080200
     98 H49          6.4080    -9.6670   -19.4480 h1         1 UZZ       0.080200
     99 H50          5.1600    -7.4380   -20.7460 hn         1 UZZ       0.336500
    100 H51          6.5000    -5.7750   -13.9470 hn         1 UZZ       0.333500
    101 H52          2.6270    -0.2680    -8.9350 hn         1 UZZ       0.336300
    102 H53          3.1820     0.5630   -10.1990 hn         1 UZZ       0.336300
    103 H55          4.3680    -5.4410   -13.1450 hn         1 UZZ       0.316500
    104 H56          3.8220    -8.3980   -16.7870 hn         1 UZZ       0.341500
    105 H57          3.1310    -8.3730   -19.1700 hn         1 UZZ       0.345500
@<TRIPOS>BOND
     1     1    16 2   
     2     1    51 1   
     3     2     3 1   
     4     2     8 2   
     5     2    11 1   
     6     3     5 1   
     7     3    45 1   
     8     3    52 1   
     9     4    16 1   
    10     4    53 1   
    11     4    54 1   
    12     5    21 1   
    13     5    55 1   
    14     5    56 1   
    15     6    42 2   
    16     7    14 1   
    17     7    18 1   
    18     7    19 1   
    19     7    57 1   
    20     9    10 1   
    21     9    12 1   
    22     9    58 1   
    23     9    59 1   
    24    10    11 1   
    25    10    60 1   
    26    10    61 1   
    27    11    62 1   
    28    12    14 1   
    29    12    63 1   
    30    12    64 1   
    31    13    24 2   
    32    14    65 1   
    33    14    66 1   
    34    15    30 2   
    35    16    18 1   
    36    17    23 1   
    37    17    67 1   
    38    17    68 1   
    39    18    69 1   
    40    19    20 2   
    41    19    44 1   
    42    21    22 1   
    43    21    70 1   
    44    21    71 1   
    45    22    23 1   
    46    22    72 1   
    47    22    73 1   
    48    23    74 1   
    49    23    75 1   
    50    24    25 1   
    51    24    45 1   
    52    25    26 1   
    53    25    47 1   
    54    25    76 1   
    55    26    27 1   
    56    26    77 1   
    57    26    78 1   
    58    27    28 1   
    59    27    79 1   
    60    27    80 1   
    61    28    29 1   
    62    28    81 1   
    63    28    82 1   
    64    29    46 1   
    65    29    83 1   
    66    29    84 1   
    67    30    31 1   
    68    30    47 1   
    69    31    32 1   
    70    31    39 1   
    71    31    85 1   
    72    32    33 1   
    73    32    86 1   
    74    32    87 1   
    75    33    34 ar  
    76    33    38 ar  
    77    34    35 ar  
    78    34    88 1   
    79    35    36 ar  
    80    35    89 1   
    81    36    37 ar  
    82    36    90 1   
    83    37    38 ar  
    84    37    91 1   
    85    38    92 1   
    86    39    48 1   
    87    39    93 1   
    88    39    94 1   
    89    40    41 1   
    90    40    48 1   
    91    40    50 2   
    92    41    49 1   
    93    41    95 1   
    94    41    96 1   
    95    42    43 1   
    96    42    49 1   
    97    43    44 1   
    98    43    97 1   
    99    43    98 1   
   100    44    99 1   
   101    45   100 1   
   102    46   101 1   
   103    46   102 1   
   104    47   103 1   
   105    48   104 1   
   106    49   105 1   
@<TRIPOS>SUBSTRUCTURE
     1 UZZ         1 TEMP              0 ****  ****    0 ROOT
