@<TRIPOS>MOLECULE
UZZ
  105   106     1     0     0
SMALL
No Charge or Current Charge


@<TRIPOS>ATOM
      1 N1           2.6020    -5.6680   -21.2130 n2         1 UZZ      -0.905100
      2 C7           9.6310    -4.9400   -14.5490 c          1 UZZ       0.582100
      3 C8           8.5830    -4.6360   -13.4340 c3         1 UZZ       0.029700
      4 N2           2.5600    -6.2450   -19.0140 nv         1 UZZ      -1.084200
      5 C9           8.7250    -5.5400   -12.1790 c3         1 UZZ      -0.080400
      6 O1           3.8980   -11.3100   -19.2400 o          1 UZZ      -0.589100
      7 C1           5.3270    -5.7540   -18.9070 c3         1 UZZ       0.172500
      8 O5          10.5810    -5.6980   -14.4040 o          1 UZZ      -0.594100
      9 C5           9.0170    -4.4870   -18.2070 c3         1 UZZ      -0.100400
     10 C6          10.0050    -4.6610   -17.0330 c3         1 UZZ       0.099000
     11 N3           9.3580    -4.3450   -15.7600 ns         1 UZZ      -0.498900
     12 C4           7.7360    -5.3470   -18.0720 c3         1 UZZ      -0.073400
     13 O4           7.0880    -2.6310   -14.8550 o          1 UZZ      -0.614100
     14 C3           6.6930    -5.0790   -19.1810 c3         1 UZZ      -0.083400
     15 O3           3.3240    -5.8310   -16.2250 o          1 UZZ      -0.641100
     16 C2           3.0810    -5.6930   -20.0750 c2         1 UZZ       0.804100
     17 N4           6.8310    -2.3040    -8.7300 n8         1 UZZ      -0.998200
     18 N            4.3020    -5.2310   -19.8690 nu         1 UZZ      -0.955400
     19 C            5.4350    -7.3210   -18.8630 c          1 UZZ       0.581100
     20 O            5.6510    -7.9490   -17.8340 o          1 UZZ      -0.611100
     21 C10          7.6850    -5.2800   -11.0570 c3         1 UZZ      -0.070400
     22 C11          7.7310    -3.8530   -10.4620 c3         1 UZZ      -0.086400
     23 C12          6.7250    -3.6540    -9.3110 c3         1 UZZ       0.149800
     24 C13          6.5170    -3.6750   -14.5740 c          1 UZZ       0.592100
     25 C14          5.0060    -3.9180   -14.8800 c3         1 UZZ       0.026700
     26 C15          4.1050    -2.7820   -14.3320 c3         1 UZZ      -0.085400
     27 C16          4.0830    -2.6690   -12.7860 c3         1 UZZ      -0.078400
     28 C17          3.2770    -1.4520   -12.2830 c3         1 UZZ      -0.074400
     29 C18          3.2230    -1.3660   -10.7440 c3         1 UZZ       0.144800
     30 C19          3.6690    -6.0650   -15.0760 c          1 UZZ       0.626100
     31 C20          3.1760    -7.2820   -14.2740 c3         1 UZZ      -0.158700
     32 C21          1.6410    -7.2150   -14.0720 c3         1 UZZ      -0.019100
     33 C22          1.2280    -5.9850   -13.2710 ca         1 UZZ      -0.095300
     34 C23          1.3860    -5.9640   -11.8720 ca         1 UZZ      -0.109000
     35 C24          1.0180    -4.8260   -11.1330 ca         1 UZZ      -0.111000
     36 C25          0.4890    -3.7030   -11.7900 ca         1 UZZ      -0.104000
     37 C26          0.3330    -3.7160   -13.1860 ca         1 UZZ      -0.111000
     38 C27          0.7030    -4.8530   -13.9250 ca         1 UZZ      -0.109000
     39 C28          3.6730    -8.6240   -14.8710 c3         1 UZZ       0.115000
     40 C29          2.0750    -9.5390   -16.6060 c          1 UZZ       0.588100
     41 C30          1.8100    -9.6910   -18.1260 c3         1 UZZ       0.018000
     42 C31          3.9400   -10.1050   -19.4440 c          1 UZZ       0.587100
     43 C32          5.1160    -9.4440   -20.2080 c3         1 UZZ       0.019000
     44 N10          5.1640    -7.9720   -20.0500 ns         1 UZZ      -0.497900
     45 N5           7.2000    -4.7110   -13.9710 ns         1 UZZ      -0.496900
     46 N6           2.4470    -0.1950   -10.2930 n8         1 UZZ      -0.998200
     47 N7           4.5260    -5.2340   -14.3870 ns         1 UZZ      -0.504900
     48 N8           3.2350    -8.8830   -16.2450 ns         1 UZZ      -0.490900
     49 N9           2.9550    -9.2610   -18.9650 ns         1 UZZ      -0.515900
     50 O2           1.3040    -9.9930   -15.7710 o          1 UZZ      -0.616100
     51 H1           1.6940    -6.1400   -21.1660 hn         1 UZZ       0.386400
     52 H2           8.7720    -3.5980   -13.1310 h1         1 UZZ       0.083700
     53 H3           3.0210    -5.9040   -18.1740 hn         1 UZZ       0.468500
     54 H4           1.5590    -6.1220   -18.9720 hn         1 UZZ       0.468500
     55 H5           8.6470    -6.5900   -12.4890 hc         1 UZZ       0.063700
     56 H6           9.7330    -5.4150   -11.7630 hc         1 UZZ       0.063700
     57 H7           5.0320    -5.4550   -17.8960 h1         1 UZZ       0.084700
     58 H8           9.5280    -4.7390   -19.1440 hc         1 UZZ       0.044200
     59 H9           8.7370    -3.4280   -18.2740 hc         1 UZZ       0.044200
     60 H10         10.3670    -5.6980   -17.0130 h1         1 UZZ       0.060700
     61 H11         10.8690    -3.9970   -17.1700 h1         1 UZZ       0.060700
     62 H12          8.5730    -3.7000   -15.7630 hn         1 UZZ       0.323500
     63 H13          7.2630    -5.1520   -17.1030 hc         1 UZZ       0.059200
     64 H14          8.0170    -6.4080   -18.0770 hc         1 UZZ       0.059200
     65 H15          7.0870    -5.4140   -20.1480 hc         1 UZZ       0.048700
     66 H16          6.5370    -3.9950   -19.2560 hc         1 UZZ       0.048700
     67 H17          6.1960    -2.2360    -7.9260 hn         1 UZZ       0.393000
     68 H18          7.7620    -2.1940    -8.3110 hn         1 UZZ       0.393000
     69 H20          4.6400    -4.7470   -20.6930 hn         1 UZZ       0.511000
     70 H21          6.6740    -5.4850   -11.4320 hc         1 UZZ       0.036700
     71 H22          7.8630    -6.0030   -10.2510 hc         1 UZZ       0.036700
     72 H23          8.7450    -3.6490   -10.0990 hc         1 UZZ       0.051700
     73 H24          7.5140    -3.1190   -11.2480 hc         1 UZZ       0.051700
     74 H25          5.7010    -3.7980    -9.6830 h1         1 UZZ       0.024700
     75 H26          6.9160    -4.3920    -8.5190 h1         1 UZZ       0.024700
     76 H27          4.9340    -3.9120   -15.9750 h1         1 UZZ       0.099700
     77 H28          4.4380    -1.8280   -14.7600 hc         1 UZZ       0.064700
     78 H29          3.0800    -2.9400   -14.6920 hc         1 UZZ       0.064700
     79 H30          3.6510    -3.5830   -12.3600 hc         1 UZZ       0.039700
     80 H31          5.1100    -2.5940   -12.4070 hc         1 UZZ       0.039700
     81 H32          3.7270    -0.5350   -12.6810 hc         1 UZZ       0.048200
     82 H33          2.2560    -1.5060   -12.6790 hc         1 UZZ       0.048200
     83 H34          2.7560    -2.2750   -10.3380 h1         1 UZZ       0.030200
     84 H35          4.2430    -1.2910   -10.3420 h1         1 UZZ       0.030200
     85 H36          3.6260    -7.2260   -13.2750 hc         1 UZZ       0.053700
     86 H37          1.1390    -7.2200   -15.0480 hc         1 UZZ       0.070200
     87 H38          1.3040    -8.1200   -13.5520 hc         1 UZZ       0.070200
     88 H39          1.7950    -6.8300   -11.3550 ha         1 UZZ       0.111000
     89 H40          1.1430    -4.8150   -10.0530 ha         1 UZZ       0.113500
     90 H41          0.2060    -2.8210   -11.2190 ha         1 UZZ       0.121000
     91 H42         -0.0700    -2.8440   -13.6960 ha         1 UZZ       0.113500
     92 H43          0.5850    -4.8510   -15.0060 ha         1 UZZ       0.111000
     93 H44          3.3480    -9.4530   -14.2280 h1         1 UZZ       0.065200
     94 H45          4.7720    -8.6260   -14.8660 h1         1 UZZ       0.065200
     95 H46          0.9390    -9.0730   -18.3740 h1         1 UZZ       0.078200
     96 H47          1.5640   -10.7410   -18.3290 h1         1 UZZ       0.078200
     97 H48          5.0030    -9.6870   -21.2710 h1         1 UZZ       0.080200
     98 H49          6.0520    -9.8810   -19.8400 h1         1 UZZ       0.080200
     99 H50          4.9250    -7.3760   -20.8370 hn         1 UZZ       0.336500
    100 H51          6.6850    -5.5740   -13.8480 hn         1 UZZ       0.333500
    101 H52          2.4920    -0.1390    -9.2680 hn         1 UZZ       0.391500
    102 H53          2.9260     0.6600   -10.6000 hn         1 UZZ       0.391500
    103 H55          4.6580    -5.4580   -13.4070 hn         1 UZZ       0.316500
    104 H56          3.8330    -8.5680   -17.0030 hn         1 UZZ       0.341500
    105 H57          3.0450    -8.2700   -19.1920 hn         1 UZZ       0.345500
@<TRIPOS>BOND
     1     1    16 2   
     2     1    51 1   
     3     2     3 1   
     4     2     8 2   
     5     2    11 1   
     6     3     5 1   
     7     3    45 1   
     8     3    52 1   
     9     4    16 1   
    10     4    53 1   
    11     4    54 1   
    12     5    21 1   
    13     5    55 1   
    14     5    56 1   
    15     6    42 2   
    16     7    14 1   
    17     7    18 1   
    18     7    19 1   
    19     7    57 1   
    20     9    10 1   
    21     9    12 1   
    22     9    58 1   
    23     9    59 1   
    24    10    11 1   
    25    10    60 1   
    26    10    61 1   
    27    11    62 1   
    28    12    14 1   
    29    12    63 1   
    30    12    64 1   
    31    13    24 2   
    32    14    65 1   
    33    14    66 1   
    34    15    30 2   
    35    16    18 1   
    36    17    23 1   
    37    17    67 1   
    38    17    68 1   
    39    18    69 1   
    40    19    20 2   
    41    19    44 1   
    42    21    22 1   
    43    21    70 1   
    44    21    71 1   
    45    22    23 1   
    46    22    72 1   
    47    22    73 1   
    48    23    74 1   
    49    23    75 1   
    50    24    25 1   
    51    24    45 1   
    52    25    26 1   
    53    25    47 1   
    54    25    76 1   
    55    26    27 1   
    56    26    77 1   
    57    26    78 1   
    58    27    28 1   
    59    27    79 1   
    60    27    80 1   
    61    28    29 1   
    62    28    81 1   
    63    28    82 1   
    64    29    46 1   
    65    29    83 1   
    66    29    84 1   
    67    30    31 1   
    68    30    47 1   
    69    31    32 1   
    70    31    39 1   
    71    31    85 1   
    72    32    33 1   
    73    32    86 1   
    74    32    87 1   
    75    33    34 ar  
    76    33    38 ar  
    77    34    35 ar  
    78    34    88 1   
    79    35    36 ar  
    80    35    89 1   
    81    36    37 ar  
    82    36    90 1   
    83    37    38 ar  
    84    37    91 1   
    85    38    92 1   
    86    39    48 1   
    87    39    93 1   
    88    39    94 1   
    89    40    41 1   
    90    40    48 1   
    91    40    50 2   
    92    41    49 1   
    93    41    95 1   
    94    41    96 1   
    95    42    43 1   
    96    42    49 1   
    97    43    44 1   
    98    43    97 1   
    99    43    98 1   
   100    44    99 1   
   101    45   100 1   
   102    46   101 1   
   103    46   102 1   
   104    47   103 1   
   105    48   104 1   
   106    49   105 1   
@<TRIPOS>SUBSTRUCTURE
     1 UZZ         1 TEMP              0 ****  ****    0 ROOT
