@<TRIPOS>MOLECULE
H00
   14    13     1     0     0
SMALL
abcg2


@<TRIPOS>ATOM
      1 CA          -0.9220    -0.7450     0.0070 c3         1 H00      -0.206400
      2 CB           0.3470     0.0930     0.0080 c3         1 H00      -0.051400
      3 CG           1.5900    -0.7840     0.0360 c3         1 H00       0.102600
      4 SD           3.0760     0.2790     0.0350 sh         1 H00      -0.500800
      5 C           -2.2420     0.0490    -0.0180 c          1 H00       0.719000
      6 O           -2.1730     1.2920    -0.0810 o          1 H00      -0.738500
      7 HA1         -0.9150    -1.4220    -0.8560 hc         1 H00       0.015700
      8 HA2         -0.9320    -1.4020     0.8840 hc         1 H00       0.015700
      9 HB1          0.3720     0.7330    -0.8770 hc         1 H00       0.056200
     10 HB2          0.3530     0.7600     0.8740 hc         1 H00       0.056200
     11 HG1          1.5980    -1.4090     0.9300 h1         1 H00       0.043200
     12 HG2          1.6170    -1.4390    -0.8350 h1         1 H00       0.043200
     13 H1           4.0000    -0.6860     0.0910 hs         1 H00       0.183800
     14 OXT         -3.2870    -0.6330     0.0270 o          1 H00      -0.738500
@<TRIPOS>BOND
     1     1     2 1   
     2     1     5 1   
     3     1     7 1   
     4     1     8 1   
     5     2     3 1   
     6     2     9 1   
     7     2    10 1   
     8     3     4 1   
     9     3    11 1   
    10     3    12 1   
    11     4    13 1   
    12     5     6 1   
    13     5    14 1   
@<TRIPOS>SUBSTRUCTURE
     1 H00         1 TEMP              0 ****  ****    0 ROOT
