@<TRIPOS>MOLECULE
H00
   14    13     1     0     0
SMALL
No Charge or Current Charge


@<TRIPOS>ATOM
      1 CA          -0.9590    -0.7960    -0.2200 c3         1 H00      -0.206400
      2 CB           0.2910     0.0360     0.1600 c3         1 H00      -0.051400
      3 CG           1.6080    -0.7530     0.0250 c3         1 H00       0.102600
      4 SD           3.1050     0.2390     0.4790 sh         1 H00      -0.500800
      5 C           -2.2290     0.0580    -0.0610 c          1 H00       0.719000
      6 O           -2.5970     0.7270    -1.0140 o          1 H00      -0.738500
      7 HA1         -0.8190    -1.0850    -1.2690 hc         1 H00       0.015700
      8 HA2         -0.9770    -1.6460     0.4740 hc         1 H00       0.015700
      9 HB1          0.3430     0.9260    -0.4780 hc         1 H00       0.056200
     10 HB2          0.1920     0.3890     1.1940 hc         1 H00       0.056200
     11 HG1          1.5720    -1.6380     0.6740 h1         1 H00       0.043200
     12 HG2          1.7240    -1.0960    -1.0110 h1         1 H00       0.043200
     13 H1           4.0090    -0.7440     0.2450 hs         1 H00       0.183800
     14 OXT         -2.7820     0.0700     1.0290 o          1 H00      -0.738500
@<TRIPOS>BOND
     1     1     2 1   
     2     1     5 1   
     3     1     7 1   
     4     1     8 1   
     5     2     3 1   
     6     2     9 1   
     7     2    10 1   
     8     3     4 1   
     9     3    11 1   
    10     3    12 1   
    11     4    13 1   
    12     5     6 1   
    13     5    14 1   
@<TRIPOS>SUBSTRUCTURE
     1 H00         1 TEMP              0 ****  ****    0 ROOT
