@<TRIPOS>MOLECULE
H01
   74    78     1     0     0
SMALL
No Charge or Current Charge


@<TRIPOS>ATOM
      1 N1           1.9970    -1.2910     0.0770 na         1 H01      -0.690000
      2 C11          1.7080    -2.6000    -0.2170 cc         1 H01       0.144000
      3 C12          2.9070    -3.1580    -0.7770 cc         1 H01      -0.226100
      4 O1           1.9740    -4.9920    -2.3180 o          1 H01      -0.706533
      5 O2           4.4370    -5.0270    -1.8480 o          1 H01      -0.706533
      6 C13          3.8890    -2.1690    -0.8280 cd         1 H01       0.006800
      7 C15          3.8600     0.2690    -0.1390 ce         1 H01      -0.200200
      8 C14          3.2840    -0.9770    -0.2830 cd         1 H01       0.085000
      9 O3           2.7560    -5.6280    -0.0890 o          1 H01      -0.706533
     10 O4           6.0860     3.8920    -0.0900 o          1 H01      -0.722200
     11 C21          3.2990     1.5900     0.1510 cc         1 H01      -0.027800
     12 C22          3.8740     2.7610     0.6040 cd         1 H01      -0.301500
     13 C23          2.8580     3.7650     0.6960 cd         1 H01      -0.071300
     14 C24          1.6590     3.2030     0.3300 cc         1 H01      -0.143800
     15 C25          0.3110     3.7750     0.2900 ce         1 H01      -0.226200
     16 C26          5.3070    -2.2880    -1.3530 c3         1 H01      -0.055900
     17 O41         -7.3490     2.0810    -1.6100 o          1 H01      -0.751500
     18 C49         -6.5720     2.9940    -1.8440 c          1 H01       0.721000
     19 O42         -6.9290     4.1180    -2.1650 o          1 H01      -0.751500
     20 C48         -5.0690     2.7330    -1.6670 c3         1 H01      -0.201400
     21 C33         -3.1590     2.8720     0.0160 cc         1 H01      -0.020200
     22 C32         -2.1770     3.8470    -0.0440 cd         1 H01      -0.163200
     23 C46         -2.3570     5.3120    -0.3690 c3         1 H01      -0.014900
     24 C31         -0.9350     3.1940     0.2490 cd         1 H01       0.118000
     25 N3          -1.2050     1.8700     0.4800 na         1 H01      -0.680000
     26 C34         -2.5470     1.6080     0.3290 cc         1 H01       0.043000
     27 C35         -3.1060     0.3650     0.4680 cf         1 H01      -0.122200
     28 C41         -2.4380    -0.9430     0.5080 cd         1 H01      -0.163800
     29 N4          -1.1400    -1.2180     0.0750 na         1 H01      -0.117000
     30 C42         -2.9370    -2.1330     0.9740 cc         1 H01      -0.091300
     31 C37         -4.3070    -2.3860     1.5640 c3         1 H01       0.005900
     32 C38         -5.3500    -2.8230     0.5110 c3         1 H01      -0.198400
     33 C39         -6.6940    -3.1120     1.1970 c          1 H01       0.720000
     34 O32         -6.9030    -4.2430     1.6070 o          1 H01      -0.761000
     35 O31         -7.4790    -2.1880     1.3460 o          1 H01      -0.761000
     36 C43         -1.9270    -3.1280     0.8470 cc         1 H01      -0.151300
     37 C36         -2.1130    -4.5620     1.2880 c3         1 H01      -0.007800
     38 C44         -0.8050    -2.5520     0.3040 cd         1 H01      -0.105800
     39 C45          0.4900    -3.1800     0.0150 cf         1 H01      -0.186200
     40 S1           3.0650    -4.9090    -1.3350 s6         1 H01       1.280700
     41 N2           1.9510     1.8880    -0.0130 na         1 H01      -0.114000
     42 S2           5.6570     3.0510     1.0390 s6         1 H01       1.303100
     43 O5           6.2520     1.7070     1.0890 o          1 H01      -0.722200
     44 O6           5.5680     3.7990     2.3030 o          1 H01      -0.722200
     45 HN1          1.4010    -0.6930     0.6340 hn         1 H01       0.469000
     46 H15          4.9060     0.3160    -0.4210 ha         1 H01       0.232000
     47 H161         3.9730     5.6270     0.7260 hc         1 H01       0.031367
     48 H162         2.2320     5.8440     0.8240 hc         1 H01       0.031367
     49 H163         3.1180     5.2610     2.2360 hc         1 H01       0.031367
     50 H25          0.2990     4.8530     0.1470 ha         1 H01       0.174000
     51 H261         5.8750    -1.3570    -1.2870 hc         1 H01       0.053033
     52 H262         5.8700    -3.0400    -0.7880 hc         1 H01       0.053033
     53 H263         5.3090    -2.5810    -2.4090 hc         1 H01       0.053033
     54 H481        -4.8390     1.6720    -1.8270 hc         1 H01       0.028700
     55 H482        -4.4850     3.4120    -2.3010 hc         1 H01       0.028700
     56 H471        -4.9390     4.0720     0.0350 hc         1 H01       0.049700
     57 H472        -5.2090     2.4080     0.4770 hc         1 H01       0.049700
     58 H461        -2.3100     5.9220     0.5410 hc         1 H01       0.026367
     59 H462        -1.5760     5.6650    -1.0530 hc         1 H01       0.026367
     60 H463        -3.3190     5.5080    -0.8550 hc         1 H01       0.026367
     61 HN3         -0.5330     1.2190     0.8640 hn         1 H01       0.472000
     62 H35         -4.1940     0.3380     0.4190 ha         1 H01       0.220000
     63 HN4         -0.5570    -0.5640    -0.4300 hn         1 H01       0.351000
     64 H371        -4.2450    -3.1490     2.3490 hc         1 H01       0.039200
     65 H372        -4.6640    -1.4780     2.0660 hc         1 H01       0.039200
     66 H381        -5.4440    -1.9800    -0.1840 hc         1 H01       0.027200
     67 H382        -4.9520    -3.7340     0.0480 hc         1 H01       0.027200
     68 H361        -2.9680    -5.0220     0.7780 hc         1 H01       0.028367
     69 H362        -1.2320    -5.1750     1.0720 hc         1 H01       0.028367
     70 H363        -2.2930    -4.6170     2.3680 hc         1 H01       0.028367
     71 H45          0.4560    -4.2520    -0.1720 ha         1 H01       0.223000
     72 HN2          1.2860     1.2530    -0.4290 hn         1 H01       0.347000
     73 C16          3.0560     5.1980     1.1440 c3         1 H01      -0.017800
     74 C47         -4.6440     3.0460    -0.2130 c3         1 H01      -0.017200
@<TRIPOS>BOND
     1     1     2 1   
     2     1     8 1   
     3     1    45 1   
     4     2     3 1   
     5     2    39 2   
     6     3     6 2   
     7     3    40 1   
     8     4    40 1   
     9     5    40 1   
    10     6     8 1   
    11     6    16 1   
    12     7     8 2   
    13     7    11 1   
    14     7    46 1   
    15     9    40 1   
    16    10    42 1   
    17    11    12 2   
    18    11    41 1   
    19    12    13 1   
    20    12    42 1   
    21    13    14 2   
    22    13    73 1   
    23    14    15 1   
    24    14    41 1   
    25    15    24 2   
    26    15    50 1   
    27    16    51 1   
    28    16    52 1   
    29    16    53 1   
    30    17    18 1   
    31    18    19 1   
    32    18    20 1   
    33    20    54 1   
    34    20    55 1   
    35    20    74 1   
    36    21    22 2   
    37    21    26 1   
    38    21    74 1   
    39    22    23 1   
    40    22    24 1   
    41    23    58 1   
    42    23    59 1   
    43    23    60 1   
    44    24    25 1   
    45    25    26 1   
    46    25    61 1   
    47    26    27 2   
    48    27    28 1   
    49    27    62 1   
    50    28    29 1   
    51    28    30 2   
    52    29    38 1   
    53    29    63 1   
    54    30    31 1   
    55    30    36 1   
    56    31    32 1   
    57    31    64 1   
    58    31    65 1   
    59    32    33 1   
    60    32    66 1   
    61    32    67 1   
    62    33    34 1   
    63    33    35 1   
    64    36    37 1   
    65    36    38 2   
    66    37    68 1   
    67    37    69 1   
    68    37    70 1   
    69    38    39 1   
    70    39    71 1   
    71    41    72 1   
    72    42    43 1   
    73    42    44 1   
    74    47    73 1   
    75    48    73 1   
    76    49    73 1   
    77    56    74 1   
    78    57    74 1   
@<TRIPOS>SUBSTRUCTURE
     1 H01         1 TEMP              0 ****  ****    0 ROOT
