@<TRIPOS>MOLECULE
H01
   74    78     1     0     0
SMALL
bcc


@<TRIPOS>ATOM
      1 N1           1.8250    -1.1230    -0.1090 na         1 H01      -0.634800
      2 C11          1.5710    -2.4920    -0.2710 cc         1 H01       0.144000
      3 C12          2.8110    -3.0750    -0.7680 cc         1 H01      -0.226100
      4 O1           1.9570    -4.8630    -2.4120 o          1 H01      -0.706533
      5 O2           4.2850    -5.0630    -1.6510 o          1 H01      -0.706533
      6 C13          3.7640    -2.1150    -0.8360 cd         1 H01       0.006800
      7 C15          3.8250     0.3070    -0.2310 ce         1 H01      -0.150200
      8 C14          3.1690    -0.8660    -0.3710 cd         1 H01       0.085000
      9 O3           2.4500    -5.5460    -0.0990 o          1 H01      -0.706533
     10 O4           6.0260     4.0560    -0.0230 o          1 H01      -0.722200
     11 C21          3.2650     1.5840     0.1250 cc         1 H01       0.022900
     12 C22          3.8760     2.7500     0.5640 cd         1 H01      -0.301500
     13 C23          2.8830     3.7610     0.6850 cd         1 H01      -0.071300
     14 C24          1.6810     3.1840     0.3210 cc         1 H01      -0.093100
     15 C25          0.3800     3.7940     0.2270 ce         1 H01      -0.176200
     16 C26          5.1800    -2.1620    -1.2920 c3         1 H01      -0.055900
     17 O41         -7.2340     3.1200    -0.8640 o          1 H01      -0.856800
     18 C49         -6.4900     2.8250    -1.8190 c          1 H01       0.931600
     19 O42         -6.8420     2.6240    -3.0010 o          1 H01      -0.856800
     20 C48         -4.9830     2.6830    -1.5390 c3         1 H01      -0.201400
     21 C33         -3.0810     2.8700     0.0760 cc         1 H01      -0.020200
     22 C32         -2.1150     3.8170     0.0030 cd         1 H01      -0.163200
     23 C46         -2.2690     5.2760    -0.2470 c3         1 H01      -0.014900
     24 C31         -0.8220     3.1790     0.1890 cd         1 H01       0.118000
     25 N3          -1.0600     1.8060     0.3040 na         1 H01      -0.624800
     26 C34         -2.4430     1.5820     0.3010 cc         1 H01       0.043000
     27 C35         -3.0520     0.3880     0.4640 cf         1 H01      -0.072200
     28 C41         -2.4280    -0.9020     0.5840 cd         1 H01      -0.113100
     29 N4          -1.1300    -1.1530     0.2120 na         1 H01      -0.168100
     30 C42         -2.9720    -2.0930     1.0380 cc         1 H01      -0.091300
     31 C37         -4.3580    -2.3050     1.5540 c3         1 H01       0.005900
     32 C38         -5.2590    -2.9900     0.5280 c3         1 H01      -0.198400
     33 C39         -6.6980    -3.2800     0.9880 c          1 H01       0.930600
     34 O32         -7.4220    -3.8810     0.1660 o          1 H01      -0.866300
     35 O31         -7.0350    -2.8980     2.1260 o          1 H01      -0.866300
     36 C43         -1.9750    -3.0920     0.8990 cc         1 H01      -0.151300
     37 C36         -2.1180    -4.5310     1.2690 c3         1 H01      -0.007800
     38 C44         -0.8470    -2.4880     0.3640 cd         1 H01      -0.055100
     39 C45          0.3930    -3.1030    -0.0180 cf         1 H01      -0.136200
     40 S1           2.8910    -4.7820    -1.2780 s6         1 H01       1.280700
     41 N2           1.9300     1.8670     0.0160 na         1 H01      -0.165100
     42 S2           5.5790     3.0300     0.9370 s6         1 H01       1.303100
     43 O5           6.2780     1.7420     0.7600 o          1 H01      -0.722200
     44 O6           5.6050     3.5050     2.3330 o          1 H01      -0.722200
     45 HN1          1.4050    -0.6640     0.6870 hn         1 H01       0.413800
     46 H15          4.8890     0.2980    -0.4020 ha         1 H01       0.182000
     47 H161         3.8860     5.6480     0.5660 hc         1 H01       0.031367
     48 H162         2.1950     5.7640     1.0410 hc         1 H01       0.031367
     49 H163         3.4020     5.2020     2.1890 hc         1 H01       0.031367
     50 H25          0.3680     4.8750     0.1840 ha         1 H01       0.124000
     51 H261         5.3390    -1.4540    -2.1080 hc         1 H01       0.053033
     52 H262         5.8480    -1.8660    -0.4810 hc         1 H01       0.053033
     53 H263         5.4670    -3.1500    -1.6270 hc         1 H01       0.053033
     54 H481        -4.6860     1.6550    -1.7710 hc         1 H01       0.028700
     55 H482        -4.4340     3.3070    -2.2530 hc         1 H01       0.028700
     56 H471        -4.8370     4.0640     0.1100 hc         1 H01       0.049700
     57 H472        -5.0910     2.4130     0.5990 hc         1 H01       0.049700
     58 H461        -1.9030     5.8640     0.5970 hc         1 H01       0.026367
     59 H462        -1.6990     5.5890    -1.1240 hc         1 H01       0.026367
     60 H463        -3.3100     5.5460    -0.4160 hc         1 H01       0.026367
     61 HN3         -0.5080     1.2930     0.9780 hn         1 H01       0.416800
     62 H35         -4.1340     0.3930     0.5020 ha         1 H01       0.170000
     63 HN4         -0.6140    -0.5500    -0.4100 hn         1 H01       0.300700
     64 H371        -4.3230    -2.9130     2.4640 hc         1 H01       0.039200
     65 H372        -4.7990    -1.3530     1.8550 hc         1 H01       0.039200
     66 H381        -5.3030    -2.3770    -0.3790 hc         1 H01       0.027200
     67 H382        -4.8020    -3.9330     0.2090 hc         1 H01       0.027200
     68 H361        -2.5190    -5.1290     0.4470 hc         1 H01       0.028367
     69 H362        -1.1670    -4.9780     1.5600 hc         1 H01       0.028367
     70 H363        -2.8030    -4.6550     2.1090 hc         1 H01       0.028367
     71 H45          0.3690    -4.1790    -0.1020 ha         1 H01       0.173000
     72 HN2          1.2950     1.3000    -0.5250 hn         1 H01       0.296700
     73 C16          3.0970     5.1640     1.1430 c3         1 H01      -0.017800
     74 C47         -4.5500     3.0360    -0.1170 c3         1 H01      -0.017200
@<TRIPOS>BOND
     1     1     2 1   
     2     1     8 1   
     3     1    45 1   
     4     2     3 1   
     5     2    39 2   
     6     3     6 2   
     7     3    40 1   
     8     4    40 1   
     9     5    40 1   
    10     6     8 1   
    11     6    16 1   
    12     7     8 2   
    13     7    11 1   
    14     7    46 1   
    15     9    40 1   
    16    10    42 1   
    17    11    12 2   
    18    11    41 1   
    19    12    13 1   
    20    12    42 1   
    21    13    14 2   
    22    13    73 1   
    23    14    15 1   
    24    14    41 1   
    25    15    24 2   
    26    15    50 1   
    27    16    51 1   
    28    16    52 1   
    29    16    53 1   
    30    17    18 1   
    31    18    19 1   
    32    18    20 1   
    33    20    54 1   
    34    20    55 1   
    35    20    74 1   
    36    21    22 2   
    37    21    26 1   
    38    21    74 1   
    39    22    23 1   
    40    22    24 1   
    41    23    58 1   
    42    23    59 1   
    43    23    60 1   
    44    24    25 1   
    45    25    26 1   
    46    25    61 1   
    47    26    27 2   
    48    27    28 1   
    49    27    62 1   
    50    28    29 1   
    51    28    30 2   
    52    29    38 1   
    53    29    63 1   
    54    30    31 1   
    55    30    36 1   
    56    31    32 1   
    57    31    64 1   
    58    31    65 1   
    59    32    33 1   
    60    32    66 1   
    61    32    67 1   
    62    33    34 1   
    63    33    35 1   
    64    36    37 1   
    65    36    38 2   
    66    37    68 1   
    67    37    69 1   
    68    37    70 1   
    69    38    39 1   
    70    39    71 1   
    71    41    72 1   
    72    42    43 1   
    73    42    44 1   
    74    47    73 1   
    75    48    73 1   
    76    49    73 1   
    77    56    74 1   
    78    57    74 1   
@<TRIPOS>SUBSTRUCTURE
     1 H01         1 TEMP              0 ****  ****    0 ROOT
