@<TRIPOS>MOLECULE
H02
   83    87     1     0     0
SMALL
No Charge or Current Charge


@<TRIPOS>ATOM
      1 CBA         -6.9580    -3.2830     0.2130 c3         1 H02      -0.084100
      2 CAA         -6.0420    -2.9480    -0.9790 c3         1 H02       0.004900
      3 C3A         -4.6240    -2.6330    -0.5580 cc         1 H02      -0.138300
      4 C2A         -3.5980    -3.6080    -0.3980 cc         1 H02      -0.174300
      5 CMA         -3.8100    -5.0840    -0.6420 c3         1 H02      -0.000800
      6 C1A         -2.4390    -2.9700    -0.0240 cd         1 H02      -0.059800
      7 CHA         -1.1160    -3.5530     0.2280 cf         1 H02      -0.277200
      8 NA          -2.7720    -1.6220     0.0740 na         1 H02      -0.097000
      9 C4A         -4.0960    -1.3970    -0.2900 cd         1 H02      -0.142800
     10 CHB         -4.7590    -0.0890    -0.3240 cf         1 H02      -0.157200
     11 C1B         -4.1730     1.1490    -0.2500 cc         1 H02       0.072000
     12 NB          -2.9200     1.4810    -0.7450 na         1 H02      -0.494200
     13 CCB         -2.2460     0.7750    -1.8660 c3         1 H02       0.154100
     14 C2B         -4.6870     2.3400     0.3670 cc         1 H02      -0.116200
     15 CMB         -6.0480     2.3960     1.0210 c3         1 H02      -0.028900
     16 C3B         -3.7320     3.3390     0.3080 cd         1 H02      -0.070200
     17 CAB         -3.8360     4.7370     0.8790 c3         1 H02      -0.021200
     18 CBB         -3.2190     4.8440     2.2860 c3         1 H02      -0.086100
     19 C4B         -2.5900     2.7690    -0.3500 cd         1 H02       0.012000
     20 CHC         -1.3600     3.3870    -0.4970 ce         1 H02      -0.089200
     21 C1C         -0.0090     2.8270    -0.5510 cc         1 H02      -0.176800
     22 NC           0.2930     1.5320    -0.1550 na         1 H02      -0.104000
     23 C2C          1.1850     3.3810    -0.9380 cd         1 H02      -0.116300
     24 CMC          1.3930     4.7880    -1.4440 c3         1 H02      -0.014800
     25 C3C          2.2070     2.3970    -0.7980 cd         1 H02      -0.083300
     26 CAC          3.6670     2.6030    -1.1400 c3         1 H02      -0.007100
     27 CBC          4.4690     3.2220     0.0290 c3         1 H02      -0.199400
     28 CGC          5.9190     3.4800    -0.4110 c          1 H02       0.719000
     29 O1C          6.1810     4.5550    -0.9310 o          1 H02      -0.741500
     30 O2C          6.7350     2.5830    -0.2670 o          1 H02      -0.741500
     31 C4C          1.6390     1.2380    -0.3260 cc         1 H02      -0.128800
     32 CHD          2.2330    -0.0690    -0.0320 ce         1 H02      -0.113200
     33 C1D          1.6640    -1.3050     0.2000 cd         1 H02       0.042000
     34 ND           0.3550    -1.6490    -0.0570 na         1 H02      -0.686000
     35 C4D          0.1010    -2.9400     0.3280 cc         1 H02       0.165000
     36 C3D          1.3460    -3.4510     0.8250 cc         1 H02      -0.174200
     37 CMD          1.5010    -4.8640     1.3360 c3         1 H02      -0.019900
     38 C2D          2.3100    -2.4580     0.7650 cd         1 H02       0.008800
     39 CAD          3.7500    -2.5590     1.2210 c3         1 H02      -0.027200
     40 CBD          4.7070    -2.9730     0.0770 c3         1 H02      -0.202400
     41 CGD          6.1330    -3.1450     0.6230 c          1 H02       0.722000
     42 O1D          6.8630    -2.1660     0.6480 o          1 H02      -0.735500
     43 O2D          6.4550    -4.2400     1.0580 o          1 H02      -0.735500
     44 HBA1        -7.0030    -2.4400     0.9130 hc         1 H02       0.025700
     45 HBA2        -7.9750    -3.4970    -0.1350 hc         1 H02       0.025700
     46 HBA3        -6.5870    -4.1610     0.7540 hc         1 H02       0.025700
     47 HAA1        -6.0560    -3.7850    -1.6870 hc         1 H02       0.031700
     48 HAA2        -6.4660    -2.0930    -1.5190 hc         1 H02       0.031700
     49 HMA1        -4.1150    -5.2680    -1.6790 hc         1 H02       0.024367
     50 HMA2        -2.8970    -5.6630    -0.4630 hc         1 H02       0.024367
     51 HMA3        -4.5890    -5.4820     0.0180 hc         1 H02       0.024367
     52 HHA         -1.1170    -4.6000     0.5260 ha         1 H02       0.190000
     53 HNA         -2.1570    -0.9010     0.4230 hn         1 H02       0.367000
     54 HHB         -5.7930    -0.1220     0.0180 ha         1 H02       0.178000
     55 HCB1        -2.9830     0.2080    -2.4490 h1         1 H02       0.047367
     56 HCB2        -1.7680     1.5040    -2.5330 h1         1 H02       0.047367
     57 HCB3        -1.4830     0.0860    -1.4940 h1         1 H02       0.047367
     58 HMB1        -6.8420     2.3660     0.2660 hc         1 H02       0.035367
     59 HMB2        -6.1910     1.5460     1.6990 hc         1 H02       0.035367
     60 HMB3        -6.1830     3.3060     1.6150 hc         1 H02       0.035367
     61 HAB1        -3.3430     5.4570     0.2160 hc         1 H02       0.040700
     62 HAB2        -4.8840     5.0570     0.9250 hc         1 H02       0.040700
     63 HBB1        -3.7290     4.1680     2.9820 hc         1 H02       0.035700
     64 HBB2        -2.1550     4.5790     2.2640 hc         1 H02       0.035700
     65 HBB3        -3.3120     5.8670     2.6680 hc         1 H02       0.035700
     66 HHC         -1.3590     4.4500    -0.2660 ha         1 H02       0.183000
     67 HNC         -0.3830     0.9030     0.2580 hn         1 H02       0.353000
     68 HMC1         1.9830     5.3780    -0.7330 hc         1 H02       0.033367
     69 HMC2         1.9240     4.7880    -2.4030 hc         1 H02       0.033367
     70 HMC3         0.4420     5.3100    -1.6000 hc         1 H02       0.033367
     71 HAC1         4.1260     1.6500    -1.4280 hc         1 H02       0.055700
     72 HAC2         3.7560     3.2520    -2.0200 hc         1 H02       0.055700
     73 HBC1         3.9680     4.1670     0.2720 hc         1 H02       0.017700
     74 HBC2         4.4340     2.4840     0.8390 hc         1 H02       0.017700
     75 HHD          3.3090    -0.0290     0.1350 ha         1 H02       0.240000
     76 HND         -0.2830    -1.0890    -0.6020 hn         1 H02       0.464000
     77 HMD1         1.0580    -5.5840     0.6380 hc         1 H02       0.035367
     78 HMD2         2.5550    -5.1410     1.4570 hc         1 H02       0.035367
     79 HMD3         1.0070    -4.9830     2.3070 hc         1 H02       0.035367
     80 HAD1         4.0810    -1.6040     1.6460 hc         1 H02       0.062700
     81 HAD2         3.8320    -3.2830     2.0390 hc         1 H02       0.062700
     82 HBD1         4.3240    -3.9280    -0.3020 hc         1 H02       0.022200
     83 HBD2         4.6680    -2.1590    -0.6570 hc         1 H02       0.022200
@<TRIPOS>BOND
     1     1     2 1   
     2     1    44 1   
     3     1    45 1   
     4     1    46 1   
     5     2     3 1   
     6     2    47 1   
     7     2    48 1   
     8     3     4 1   
     9     3     9 2   
    10     4     5 1   
    11     4     6 2   
    12     5    49 1   
    13     5    50 1   
    14     5    51 1   
    15     6     7 1   
    16     6     8 1   
    17     7    35 2   
    18     7    52 1   
    19     8     9 1   
    20     8    53 1   
    21     9    10 1   
    22    10    11 2   
    23    10    54 1   
    24    11    12 1   
    25    11    14 1   
    26    12    13 1   
    27    12    19 1   
    28    13    55 1   
    29    13    56 1   
    30    13    57 1   
    31    14    15 1   
    32    14    16 2   
    33    15    58 1   
    34    15    59 1   
    35    15    60 1   
    36    16    17 1   
    37    16    19 1   
    38    17    18 1   
    39    17    61 1   
    40    17    62 1   
    41    18    63 1   
    42    18    64 1   
    43    18    65 1   
    44    19    20 2   
    45    20    21 1   
    46    20    66 1   
    47    21    22 1   
    48    21    23 2   
    49    22    31 1   
    50    22    67 1   
    51    23    24 1   
    52    23    25 1   
    53    24    68 1   
    54    24    69 1   
    55    24    70 1   
    56    25    26 1   
    57    25    31 2   
    58    26    27 1   
    59    26    71 1   
    60    26    72 1   
    61    27    28 1   
    62    27    73 1   
    63    27    74 1   
    64    28    29 1   
    65    28    30 1   
    66    31    32 1   
    67    32    33 2   
    68    32    75 1   
    69    33    34 1   
    70    33    38 1   
    71    34    35 1   
    72    34    76 1   
    73    35    36 1   
    74    36    37 1   
    75    36    38 2   
    76    37    77 1   
    77    37    78 1   
    78    37    79 1   
    79    38    39 1   
    80    39    40 1   
    81    39    80 1   
    82    39    81 1   
    83    40    41 1   
    84    40    82 1   
    85    40    83 1   
    86    41    42 1   
    87    41    43 1   
@<TRIPOS>SUBSTRUCTURE
     1 H02         1 TEMP              0 ****  ****    0 ROOT
