@<TRIPOS>MOLECULE
H02
   83    87     1     0     0
SMALL
abcg2


@<TRIPOS>ATOM
      1 CBA         -6.8480    -3.2030     0.6420 c3         1 H02      -0.084100
      2 CAA         -6.0540    -2.9310    -0.6370 c3         1 H02       0.004900
      3 C3A         -4.6050    -2.6800    -0.3690 cc         1 H02      -0.138300
      4 C2A         -3.5950    -3.6650    -0.2430 cc         1 H02      -0.174300
      5 CMA         -3.7890    -5.1340    -0.4250 c3         1 H02      -0.000800
      6 C1A         -2.4050    -3.0090     0.0430 cd         1 H02      -0.059800
      7 CHA         -1.1040    -3.5640     0.2970 cf         1 H02      -0.277200
      8 NA          -2.6800    -1.6670     0.0740 na         1 H02      -0.097000
      9 C4A         -4.0110    -1.4460    -0.1550 cd         1 H02      -0.142800
     10 CHB         -4.6240    -0.1450    -0.1070 cf         1 H02      -0.157200
     11 C1B         -4.0300     1.0660    -0.1740 cc         1 H02       0.072000
     12 NB          -2.6670     1.3110    -0.4840 na         1 H02      -0.494200
     13 CCB         -2.2840     0.8690    -1.8320 c3         1 H02       0.154100
     14 C2B         -4.6700     2.3420     0.0940 cc         1 H02      -0.116200
     15 CMB         -6.1040     2.4740     0.4690 c3         1 H02      -0.028900
     16 C3B         -3.7310     3.3150     0.0340 cd         1 H02      -0.070200
     17 CAB         -3.9010     4.7640     0.3450 c3         1 H02      -0.021200
     18 CBB         -3.5950     5.0880     1.8080 c3         1 H02      -0.086100
     19 C4B         -2.4500     2.6980    -0.2640 cd         1 H02       0.012000
     20 CHC         -1.2540     3.3240    -0.2960 ce         1 H02      -0.089200
     21 C1C          0.0580     2.7420    -0.3820 cc         1 H02      -0.176800
     22 NC           0.3210     1.4290    -0.0940 na         1 H02      -0.104000
     23 C2C          1.2680     3.3420    -0.7030 cd         1 H02      -0.116300
     24 CMC          1.4860     4.7590    -1.1170 c3         1 H02      -0.014800
     25 C3C          2.2780     2.3560    -0.5920 cd         1 H02      -0.083300
     26 CAC          3.7390     2.5750    -0.8170 c3         1 H02      -0.007100
     27 CBC          4.4400     3.1160     0.4290 c3         1 H02      -0.199400
     28 CGC          5.9320     3.4530     0.2650 c          1 H02       0.719000
     29 O1C          6.4860     3.9720     1.2570 o          1 H02      -0.741500
     30 O2C          6.4750     3.1840    -0.8250 o          1 H02      -0.741500
     31 C4C          1.6630     1.1770    -0.1920 cc         1 H02      -0.128800
     32 CHD          2.2730    -0.0890     0.1060 ce         1 H02      -0.113200
     33 C1D          1.6720    -1.2860     0.2820 cd         1 H02       0.042000
     34 ND           0.2990    -1.5490     0.1360 na         1 H02      -0.686000
     35 C4D          0.0800    -2.9160     0.3720 cc         1 H02       0.165000
     36 C3D          1.3590    -3.4960     0.7410 cc         1 H02      -0.174200
     37 CMD          1.5220    -4.9240     1.1210 c3         1 H02      -0.019900
     38 C2D          2.3060    -2.5280     0.6950 cd         1 H02       0.008800
     39 CAD          3.7670    -2.6630     0.9610 c3         1 H02      -0.027200
     40 CBD          4.5530    -2.9140    -0.3250 c3         1 H02      -0.202400
     41 CGD          6.0730    -3.0850    -0.1490 c          1 H02       0.722000
     42 O1D          6.7210    -3.2740    -1.1990 o          1 H02      -0.735500
     43 O2D          6.5360    -3.0300     1.0070 o          1 H02      -0.735500
     44 HBA1        -6.7980    -2.3490     1.3190 hc         1 H02       0.025700
     45 HBA2        -7.8990    -3.3970     0.4220 hc         1 H02       0.025700
     46 HBA3        -6.4520    -4.0690     1.1740 hc         1 H02       0.025700
     47 HAA1        -6.1610    -3.7830    -1.3150 hc         1 H02       0.031700
     48 HAA2        -6.4950    -2.0790    -1.1600 hc         1 H02       0.031700
     49 HMA1        -4.0560    -5.3830    -1.4550 hc         1 H02       0.024367
     50 HMA2        -2.8900    -5.7000    -0.1820 hc         1 H02       0.024367
     51 HMA3        -4.5920    -5.5150     0.2090 hc         1 H02       0.024367
     52 HHA         -1.0760    -4.6350     0.4540 ha         1 H02       0.190000
     53 HNA         -2.0590    -0.9650     0.4420 hn         1 H02       0.367000
     54 HHB         -5.6970    -0.1470     0.0390 ha         1 H02       0.178000
     55 HCB1        -2.4580    -0.1980    -1.9450 h1         1 H02       0.047367
     56 HCB2        -2.8550     1.3970    -2.6020 h1         1 H02       0.047367
     57 HCB3        -1.2270     1.0530    -2.0040 h1         1 H02       0.047367
     58 HMB1        -6.7440     1.8700    -0.1760 hc         1 H02       0.035367
     59 HMB2        -6.2730     2.1350     1.4940 hc         1 H02       0.035367
     60 HMB3        -6.4450     3.5060     0.4030 hc         1 H02       0.035367
     61 HAB1        -3.2550     5.3600    -0.3040 hc         1 H02       0.040700
     62 HAB2        -4.9220     5.0720     0.1120 hc         1 H02       0.040700
     63 HBB1        -4.2640     4.5460     2.4770 hc         1 H02       0.035700
     64 HBB2        -2.5720     4.8160     2.0680 hc         1 H02       0.035700
     65 HBB3        -3.7180     6.1540     2.0010 hc         1 H02       0.035700
     66 HHC         -1.2750     4.4040    -0.2090 ha         1 H02       0.183000
     67 HNC         -0.3450     0.8220     0.3560 hn         1 H02       0.353000
     68 HMC1         2.2660     5.2340    -0.5180 hc         1 H02       0.033367
     69 HMC2         1.7990     4.8350    -2.1610 hc         1 H02       0.033367
     70 HMC3         0.5850     5.3630    -1.0110 hc         1 H02       0.033367
     71 HAC1         4.2210     1.6490    -1.1380 hc         1 H02       0.055700
     72 HAC2         3.8760     3.2810    -1.6400 hc         1 H02       0.055700
     73 HBC1         3.9170     4.0120     0.7810 hc         1 H02       0.017700
     74 HBC2         4.3400     2.3900     1.2440 hc         1 H02       0.017700
     75 HHD          3.3500    -0.0660     0.2090 ha         1 H02       0.240000
     76 HND         -0.1480    -1.1580    -0.6830 hn         1 H02       0.464000
     77 HMD1         1.1680    -5.5860     0.3280 hc         1 H02       0.035367
     78 HMD2         2.5640    -5.1710     1.3150 hc         1 H02       0.035367
     79 HMD3         0.9480    -5.1680     2.0180 hc         1 H02       0.035367
     80 HAD1         4.1400    -1.7640     1.4560 hc         1 H02       0.062700
     81 HAD2         3.9410    -3.4820     1.6610 hc         1 H02       0.062700
     82 HBD1         4.1620    -3.8120    -0.8160 hc         1 H02       0.022200
     83 HBD2         4.3770    -2.1020    -1.0370 hc         1 H02       0.022200
@<TRIPOS>BOND
     1     1     2 1   
     2     1    44 1   
     3     1    45 1   
     4     1    46 1   
     5     2     3 1   
     6     2    47 1   
     7     2    48 1   
     8     3     4 1   
     9     3     9 2   
    10     4     5 1   
    11     4     6 2   
    12     5    49 1   
    13     5    50 1   
    14     5    51 1   
    15     6     7 1   
    16     6     8 1   
    17     7    35 2   
    18     7    52 1   
    19     8     9 1   
    20     8    53 1   
    21     9    10 1   
    22    10    11 2   
    23    10    54 1   
    24    11    12 1   
    25    11    14 1   
    26    12    13 1   
    27    12    19 1   
    28    13    55 1   
    29    13    56 1   
    30    13    57 1   
    31    14    15 1   
    32    14    16 2   
    33    15    58 1   
    34    15    59 1   
    35    15    60 1   
    36    16    17 1   
    37    16    19 1   
    38    17    18 1   
    39    17    61 1   
    40    17    62 1   
    41    18    63 1   
    42    18    64 1   
    43    18    65 1   
    44    19    20 2   
    45    20    21 1   
    46    20    66 1   
    47    21    22 1   
    48    21    23 2   
    49    22    31 1   
    50    22    67 1   
    51    23    24 1   
    52    23    25 1   
    53    24    68 1   
    54    24    69 1   
    55    24    70 1   
    56    25    26 1   
    57    25    31 2   
    58    26    27 1   
    59    26    71 1   
    60    26    72 1   
    61    27    28 1   
    62    27    73 1   
    63    27    74 1   
    64    28    29 1   
    65    28    30 1   
    66    31    32 1   
    67    32    33 2   
    68    32    75 1   
    69    33    34 1   
    70    33    38 1   
    71    34    35 1   
    72    34    76 1   
    73    35    36 1   
    74    36    37 1   
    75    36    38 2   
    76    37    77 1   
    77    37    78 1   
    78    37    79 1   
    79    38    39 1   
    80    39    40 1   
    81    39    80 1   
    82    39    81 1   
    83    40    41 1   
    84    40    82 1   
    85    40    83 1   
    86    41    42 1   
    87    41    43 1   
@<TRIPOS>SUBSTRUCTURE
     1 H02         1 TEMP              0 ****  ****    0 ROOT
