@<TRIPOS>MOLECULE
H03
   62    63     1     0     0
SMALL
abcg2


@<TRIPOS>ATOM
      1 C01          5.6980     2.6600    17.1960 c3         1 H03      -0.084100
      2 C02          7.2220     2.7040    17.1100 c3         1 H03      -0.138700
      3 C03          7.6960     3.8380    16.2500 ca         1 H03       0.190300
      4 N04          7.4530     5.0710    16.7140 nb         1 H03      -0.275000
      5 C05          7.8490     6.0880    15.9570 ca         1 H03       0.406900
      6 N06          7.5530     7.3390    16.3960 nv         1 H03      -1.043900
      7 N07          8.4840     6.0030    14.7870 nb         1 H03      -0.324000
      8 C08          8.7340     4.7840    14.3260 ca         1 H03       0.401900
      9 N09          9.3600     4.6670    13.1390 nv         1 H03      -1.066900
     10 C10          8.3370     3.6350    15.0480 ca         1 H03      -0.143900
     11 O11          8.6350     2.4010    14.5430 os         1 H03      -0.349100
     12 C12          7.6160     1.8220    13.7320 c3         1 H03       0.154600
     13 C13          8.2210     0.6890    12.9280 c3         1 H03      -0.079400
     14 C14          8.8440    -0.4220    13.7490 c3         1 H03       0.167600
     15 O15          7.8160    -1.0560    14.4910 os         1 H03      -0.363100
     16 C16          8.1200    -2.1000    15.2870 ca         1 H03       0.149100
     17 C17          9.4160    -2.5620    15.4980 ca         1 H03      -0.196000
     18 C18          9.6380    -3.6440    16.3420 ca         1 H03      -0.069000
     19 C19          8.5790    -4.2720    16.9750 ca         1 H03      -0.144000
     20 C20          7.2870    -3.8050    16.7550 ca         1 H03      -0.068000
     21 C21          7.0330    -2.7270    15.9190 ca         1 H03      -0.123300
     22 C22          5.6320    -2.2200    15.7160 c3         1 H03      -0.005100
     23 C23          5.3630    -0.9800    16.5830 c3         1 H03      -0.165400
     24 C24          3.9960    -0.3790    16.3690 c          1 H03       0.630100
     25 O25          3.1280    -0.3330    17.2110 o          1 H03      -0.539100
     26 N26          3.8040     0.1310    15.1030 ns         1 H03      -0.606300
     27 S27          2.4440     1.0580    14.7010 s6         1 H03       1.298900
     28 O28          2.5130     2.3210    15.4040 o          1 H03      -0.524500
     29 O29          1.2820     0.2190    14.8770 o          1 H03      -0.524500
     30 N30          2.6660     1.3360    13.1100 n3         1 H03      -0.760500
     31 C31          2.5690     0.1940    12.2060 c3         1 H03       0.182600
     32 C32          3.6350     2.3510    12.7080 c3         1 H03       0.182600
     33 H012         5.3740     1.8550    17.8560 hc         1 H03       0.042033
     34 H011         5.2990     3.5930    17.5900 hc         1 H03       0.042033
     35 H013         5.2520     2.4940    16.2150 hc         1 H03       0.042033
     36 H021         7.6350     2.8440    18.1130 hc         1 H03       0.060700
     37 H022         7.6040     1.7520    16.7410 hc         1 H03       0.060700
     38 H062         7.3160     7.4400    17.3680 hn         1 H03       0.486000
     39 H061         8.0670     8.1040    15.9940 hn         1 H03       0.486000
     40 H092         9.7790     5.4900    12.7410 hn         1 H03       0.490500
     41 H091         9.7660     3.7850    12.8790 hn         1 H03       0.490500
     42 H121         6.7900     1.4690    14.3600 h1         1 H03       0.031700
     43 H122         7.2010     2.5700    13.0470 h1         1 H03       0.031700
     44 H132         7.4470     0.2760    12.2770 hc         1 H03       0.055200
     45 H131         8.9960     1.0900    12.2700 hc         1 H03       0.055200
     46 H142         9.3290    -1.1430    13.0820 h1         1 H03       0.044700
     47 H141         9.6150    -0.0230    14.4150 h1         1 H03       0.044700
     48 H171        10.2620    -2.0930    15.0150 ha         1 H03       0.117000
     49 H181        10.6510    -3.9920    16.4980 ha         1 H03       0.113000
     50 H191         8.7490    -5.1160    17.6290 ha         1 H03       0.119000
     51 H201         6.4500    -4.2920    17.2410 ha         1 H03       0.117000
     52 H222         5.4610    -1.9960    14.6620 hc         1 H03       0.053700
     53 H221         4.9230    -3.0040    15.9870 hc         1 H03       0.053700
     54 H231         5.4490    -1.2430    17.6370 hc         1 H03       0.075200
     55 H232         6.1130    -0.2120    16.3760 hc         1 H03       0.075200
     56 H261         4.6100     0.2250    14.4950 hn         1 H03       0.323500
     57 H313         2.3310     0.5730    11.2140 h1         1 H03       0.053033
     58 H312         3.5060    -0.3660    12.1490 h1         1 H03       0.053033
     59 H311         1.7700    -0.4760    12.5090 h1         1 H03       0.053033
     60 H323         3.3870     2.6590    11.6940 h1         1 H03       0.053033
     61 H321         3.5740     3.2240    13.3490 h1         1 H03       0.053033
     62 H322         4.6620     1.9720    12.7100 h1         1 H03       0.053033
@<TRIPOS>BOND
     1     1     2 1   
     2     1    33 1   
     3     1    34 1   
     4     1    35 1   
     5     2     3 1   
     6     2    36 1   
     7     2    37 1   
     8     3     4 ar  
     9     3    10 ar  
    10     4     5 ar  
    11     5     6 1   
    12     5     7 ar  
    13     6    38 1   
    14     6    39 1   
    15     7     8 ar  
    16     8     9 1   
    17     8    10 ar  
    18     9    40 1   
    19     9    41 1   
    20    10    11 1   
    21    11    12 1   
    22    12    13 1   
    23    12    42 1   
    24    12    43 1   
    25    13    14 1   
    26    13    44 1   
    27    13    45 1   
    28    14    15 1   
    29    14    46 1   
    30    14    47 1   
    31    15    16 1   
    32    16    17 ar  
    33    16    21 ar  
    34    17    18 ar  
    35    17    48 1   
    36    18    19 ar  
    37    18    49 1   
    38    19    20 ar  
    39    19    50 1   
    40    20    21 ar  
    41    20    51 1   
    42    21    22 1   
    43    22    23 1   
    44    22    52 1   
    45    22    53 1   
    46    23    24 1   
    47    23    54 1   
    48    23    55 1   
    49    24    25 2   
    50    24    26 1   
    51    26    27 1   
    52    26    56 1   
    53    27    28 2   
    54    27    29 2   
    55    27    30 1   
    56    30    31 1   
    57    30    32 1   
    58    31    57 1   
    59    31    58 1   
    60    31    59 1   
    61    32    60 1   
    62    32    61 1   
    63    32    62 1   
@<TRIPOS>SUBSTRUCTURE
     1 H03         1 TEMP              0 ****  ****    0 ROOT
