@<TRIPOS>MOLECULE
H03
   62    63     1     0     0
SMALL
No Charge or Current Charge


@<TRIPOS>ATOM
      1 C01          7.2710     1.8330    17.8770 c3         1 H03      -0.084100
      2 C02          8.0890     1.9630    16.5700 c3         1 H03      -0.138700
      3 C03          7.6400     3.0860    15.6290 ca         1 H03       0.190300
      4 N04          7.0700     4.1790    16.1820 nb         1 H03      -0.275000
      5 C05          6.7020     5.1540    15.3420 ca         1 H03       0.406900
      6 N06          6.1260     6.2400    15.9050 nv         1 H03      -1.043900
      7 N07          6.8380     5.1900    14.0130 nb         1 H03      -0.324000
      8 C08          7.4070     4.1130    13.4630 ca         1 H03       0.401900
      9 N09          7.5820     4.1900    12.1170 nv         1 H03      -1.066900
     10 C10          7.8340     3.0070    14.2300 ca         1 H03      -0.143900
     11 O11          8.4510     1.9050    13.6650 os         1 H03      -0.349100
     12 C12          7.6890     0.9910    12.8580 c3         1 H03       0.154600
     13 C13          8.5930    -0.2100    12.5130 c3         1 H03      -0.079400
     14 C14          9.1060    -0.9830    13.7460 c3         1 H03       0.167600
     15 O15          7.9640    -1.4860    14.4610 os         1 H03      -0.363100
     16 C16          8.0790    -2.1900    15.6440 ca         1 H03       0.149100
     17 C17          9.3370    -2.5220    16.1940 ca         1 H03      -0.196000
     18 C18          9.4160    -3.2350    17.4020 ca         1 H03      -0.069000
     19 C19          8.2420    -3.6170    18.0680 ca         1 H03      -0.144000
     20 C20          6.9880    -3.2900    17.5290 ca         1 H03      -0.068000
     21 C21          6.8960    -2.5790    16.3160 ca         1 H03      -0.123300
     22 C22          5.5190    -2.2180    15.7630 c3         1 H03      -0.005100
     23 C23          5.0610    -0.8270    16.2500 c3         1 H03      -0.165400
     24 C24          3.7220    -0.4210    15.6380 c          1 H03       0.630100
     25 O25          2.6740    -0.9640    15.9470 o          1 H03      -0.539100
     26 N26          3.7940     0.6080    14.7580 ns         1 H03      -0.606300
     27 S27          2.5480     1.2880    13.8980 s6         1 H03       1.298900
     28 O28          1.3600     1.4480    14.7390 o          1 H03      -0.524500
     29 O29          2.4500     0.5970    12.6100 o          1 H03      -0.524500
     30 N30          3.1720     2.8580    13.5800 n3         1 H03      -0.760500
     31 C31          4.1600     2.9430    12.4830 c3         1 H03       0.182600
     32 C32          3.5810     3.6200    14.7790 c3         1 H03       0.182600
     33 H012         7.5920     0.9490    18.4410 hc         1 H03       0.042033
     34 H011         7.4110     2.7120    18.5180 hc         1 H03       0.042033
     35 H013         6.2010     1.7300    17.6590 hc         1 H03       0.042033
     36 H021         9.1440     2.1100    16.8290 hc         1 H03       0.060700
     37 H022         8.0380     1.0000    16.0500 hc         1 H03       0.060700
     38 H062         6.2110     6.3610    16.9100 hn         1 H03       0.486000
     39 H061         6.0430     7.0860    15.3470 hn         1 H03       0.486000
     40 H092         7.4970     5.1050    11.6830 hn         1 H03       0.490500
     41 H091         8.2580     3.5570    11.7000 hn         1 H03       0.490500
     42 H121         6.8040     0.6400    13.4040 h1         1 H03       0.031700
     43 H122         7.3510     1.4710    11.9310 h1         1 H03       0.031700
     44 H132         8.0390    -0.8990    11.8650 hc         1 H03       0.055200
     45 H131         9.4530     0.1450    11.9320 hc         1 H03       0.055200
     46 H142         9.7490    -1.8080    13.4140 h1         1 H03       0.044700
     47 H141         9.7000    -0.3130    14.3820 h1         1 H03       0.044700
     48 H171        10.2620    -2.2390    15.7000 ha         1 H03       0.117000
     49 H181        10.3870    -3.4890    17.8230 ha         1 H03       0.113000
     50 H191         8.3040    -4.1670    19.0050 ha         1 H03       0.119000
     51 H201         6.0840    -3.5870    18.0570 ha         1 H03       0.117000
     52 H222         5.5260    -2.2370    14.6660 hc         1 H03       0.053700
     53 H221         4.7800    -2.9690    16.0690 hc         1 H03       0.053700
     54 H231         4.9520    -0.8590    17.3400 hc         1 H03       0.075200
     55 H232         5.8300    -0.0950    15.9830 hc         1 H03       0.075200
     56 H261         4.6860     0.9900    14.5060 hn         1 H03       0.323500
     57 H313         4.4420     3.9880    12.2960 h1         1 H03       0.053033
     58 H312         5.0730     2.3850    12.7260 h1         1 H03       0.053033
     59 H311         3.7510     2.5440    11.5460 h1         1 H03       0.053033
     60 H323         3.8230     4.6570    14.5140 h1         1 H03       0.053033
     61 H321         2.7730     3.6520    15.5220 h1         1 H03       0.053033
     62 H322         4.4660     3.1780    15.2540 h1         1 H03       0.053033
@<TRIPOS>BOND
     1     1     2 1   
     2     1    33 1   
     3     1    34 1   
     4     1    35 1   
     5     2     3 1   
     6     2    36 1   
     7     2    37 1   
     8     3     4 ar  
     9     3    10 ar  
    10     4     5 ar  
    11     5     6 1   
    12     5     7 ar  
    13     6    38 1   
    14     6    39 1   
    15     7     8 ar  
    16     8     9 1   
    17     8    10 ar  
    18     9    40 1   
    19     9    41 1   
    20    10    11 1   
    21    11    12 1   
    22    12    13 1   
    23    12    42 1   
    24    12    43 1   
    25    13    14 1   
    26    13    44 1   
    27    13    45 1   
    28    14    15 1   
    29    14    46 1   
    30    14    47 1   
    31    15    16 1   
    32    16    17 ar  
    33    16    21 ar  
    34    17    18 ar  
    35    17    48 1   
    36    18    19 ar  
    37    18    49 1   
    38    19    20 ar  
    39    19    50 1   
    40    20    21 ar  
    41    20    51 1   
    42    21    22 1   
    43    22    23 1   
    44    22    52 1   
    45    22    53 1   
    46    23    24 1   
    47    23    54 1   
    48    23    55 1   
    49    24    25 2   
    50    24    26 1   
    51    26    27 1   
    52    26    56 1   
    53    27    28 2   
    54    27    29 2   
    55    27    30 1   
    56    30    31 1   
    57    30    32 1   
    58    31    57 1   
    59    31    58 1   
    60    31    59 1   
    61    32    60 1   
    62    32    61 1   
    63    32    62 1   
@<TRIPOS>SUBSTRUCTURE
     1 H03         1 TEMP              0 ****  ****    0 ROOT
