@<TRIPOS>MOLECULE
H04
   33    34     1     0     0
SMALL
No Charge or Current Charge


@<TRIPOS>ATOM
      1 N1           1.0390     0.3480    -0.1460 nh         1 H04      -0.760400
      2 C4          -2.6610     1.1010    -0.0320 ca         1 H04      -0.192000
      3 C5          -2.6430     2.4870    -0.2530 ca         1 H04      -0.089000
      4 C6          -1.4240     3.1520    -0.4400 ca         1 H04      -0.132000
      5 C7          -0.2170     2.4350    -0.4050 ca         1 H04      -0.125000
      6 C8          -0.2070     1.0410    -0.1810 ca         1 H04       0.231000
      7 C10          3.1670    -0.4560    -1.2870 c6         1 H04       0.146300
      8 C1          -2.2610    -3.2330     0.6020 c3         1 H04      -0.093100
      9 C2          -2.6620    -1.7620     0.4070 c3         1 H04       0.161600
     10 C3          -1.4510     0.3650     0.0060 ca         1 H04       0.139100
     11 C9           2.1680     0.7270    -1.0530 c6         1 H04       0.152800
     12 N2           3.6470    -1.0680    -0.0130 n7         1 H04      -0.844400
     13 C11          2.4920    -1.4960     0.8320 c6         1 H04       0.146300
     14 C12          1.4850    -0.3310     1.1110 c6         1 H04       0.152800
     15 H1          -3.6220     0.6150     0.1040 ha         1 H04       0.115000
     16 H2          -3.5770     3.0460    -0.2810 ha         1 H04       0.112000
     17 H3          -1.4130     4.2270    -0.6100 ha         1 H04       0.113000
     18 H4           0.7170     2.9720    -0.5410 ha         1 H04       0.113000
     19 H5           2.6620    -1.2260    -1.8910 h1         1 H04       0.059450
     20 H6           4.0250    -0.0950    -1.8740 h1         1 H04       0.059450
     21 H7          -1.7360    -3.6110    -0.2830 hc         1 H04       0.046700
     22 H8          -1.6040    -3.3420     1.4740 hc         1 H04       0.046700
     23 H9          -3.1520    -3.8500     0.7640 hc         1 H04       0.046700
     24 H10         -3.3260    -1.6770    -0.4630 h1         1 H04       0.030700
     25 H11         -3.1960    -1.4080     1.2980 h1         1 H04       0.030700
     26 H12          1.7780     1.0510    -2.0290 h1         1 H04       0.037700
     27 H13          2.7200     1.5760    -0.6220 h1         1 H04       0.037700
     28 H14          4.1640    -0.3480     0.5050 hn         1 H04       0.398000
     29 H16          1.9540    -2.3110     0.3260 h1         1 H04       0.059450
     30 H17          2.8590    -1.8940     1.7900 h1         1 H04       0.059450
     31 H18          1.9680     0.4040     1.7710 h1         1 H04       0.037700
     32 H19          0.6260    -0.7390     1.6620 h1         1 H04       0.037700
     33 O1          -1.4550    -1.0100     0.2030 os         1 H04      -0.336100
@<TRIPOS>BOND
     1     1     6 1   
     2     1    11 1   
     3     1    14 1   
     4     2     3 ar  
     5     2    10 ar  
     6     2    15 1   
     7     3     4 ar  
     8     3    16 1   
     9     4     5 ar  
    10     4    17 1   
    11     5     6 ar  
    12     5    18 1   
    13     6    10 ar  
    14     7    11 1   
    15     7    12 1   
    16     7    19 1   
    17     7    20 1   
    18     8     9 1   
    19     8    21 1   
    20     8    22 1   
    21     8    23 1   
    22     9    24 1   
    23     9    25 1   
    24     9    33 1   
    25    10    33 1   
    26    11    26 1   
    27    11    27 1   
    28    12    13 1   
    29    12    28 1   
    30    13    14 1   
    31    13    29 1   
    32    13    30 1   
    33    14    31 1   
    34    14    32 1   
@<TRIPOS>SUBSTRUCTURE
     1 H04         1 TEMP              0 ****  ****    0 ROOT
