@<TRIPOS>MOLECULE
H04
   33    34     1     0     0
SMALL
abcg2


@<TRIPOS>ATOM
      1 N1           0.9730     0.1780    -0.2700 nh         1 H04      -0.760400
      2 C4          -2.6040     1.0710     0.0290 ca         1 H04      -0.192000
      3 C5          -2.5720     2.4450    -0.2000 ca         1 H04      -0.089000
      4 C6          -1.3700     3.0750    -0.4580 ca         1 H04      -0.132000
      5 C7          -0.1920     2.3330    -0.4680 ca         1 H04      -0.125000
      6 C8          -0.1920     0.9610    -0.2410 ca         1 H04       0.231000
      7 C10          3.1320    -0.4040    -1.2180 c6         1 H04       0.146300
      8 C1          -2.2420    -3.1840     0.5600 c3         1 H04      -0.093100
      9 C2          -2.5860    -1.7200     0.4290 c3         1 H04       0.161600
     10 C3          -1.4330     0.3240    -0.0060 ca         1 H04       0.139100
     11 C9           2.1010     0.7020    -1.0180 c6         1 H04       0.152800
     12 N2           3.5770    -1.0220     0.0190 n7         1 H04      -0.844400
     13 C11          2.4400    -1.4360     0.8250 c6         1 H04       0.146300
     14 C12          1.4040    -0.3400     1.0250 c6         1 H04       0.152800
     15 H1          -3.5570     0.5950     0.2130 ha         1 H04       0.115000
     16 H2          -3.4960     3.0080    -0.1800 ha         1 H04       0.112000
     17 H3          -1.3350     4.1410    -0.6400 ha         1 H04       0.113000
     18 H4           0.7440     2.8420    -0.6560 ha         1 H04       0.113000
     19 H5           2.6970    -1.1820    -1.8540 h1         1 H04       0.059450
     20 H6           3.9980    -0.0030    -1.7490 h1         1 H04       0.059450
     21 H7          -1.8220    -3.5800    -0.3650 hc         1 H04       0.046700
     22 H8          -1.5270    -3.3530     1.3650 hc         1 H04       0.046700
     23 H9          -3.1440    -3.7510     0.7880 hc         1 H04       0.046700
     24 H10         -3.3090    -1.5680    -0.3810 h1         1 H04       0.030700
     25 H11         -3.0480    -1.3530     1.3520 h1         1 H04       0.030700
     26 H12          1.7550     1.0640    -1.9880 h1         1 H04       0.037700
     27 H13          2.5860     1.5500    -0.5050 h1         1 H04       0.037700
     28 H14          4.1270    -0.3510     0.5450 hn         1 H04       0.398000
     29 H16          1.9590    -2.2860     0.3320 h1         1 H04       0.059450
     30 H17          2.7970    -1.7840     1.7960 h1         1 H04       0.059450
     31 H18          1.8370     0.4690     1.6370 h1         1 H04       0.037700
     32 H19          0.5530    -0.7400     1.5730 h1         1 H04       0.037700
     33 O1          -1.3870    -1.0110     0.1610 os         1 H04      -0.336100
@<TRIPOS>BOND
     1     1     6 1   
     2     1    11 1   
     3     1    14 1   
     4     2     3 ar  
     5     2    10 ar  
     6     2    15 1   
     7     3     4 ar  
     8     3    16 1   
     9     4     5 ar  
    10     4    17 1   
    11     5     6 ar  
    12     5    18 1   
    13     6    10 ar  
    14     7    11 1   
    15     7    12 1   
    16     7    19 1   
    17     7    20 1   
    18     8     9 1   
    19     8    21 1   
    20     8    22 1   
    21     8    23 1   
    22     9    24 1   
    23     9    25 1   
    24     9    33 1   
    25    10    33 1   
    26    11    26 1   
    27    11    27 1   
    28    12    13 1   
    29    12    28 1   
    30    13    14 1   
    31    13    29 1   
    32    13    30 1   
    33    14    31 1   
    34    14    32 1   
@<TRIPOS>SUBSTRUCTURE
     1 H04         1 TEMP              0 ****  ****    0 ROOT
