@<TRIPOS>MOLECULE
H05
   30    32     1     0     0
SMALL
No Charge or Current Charge


@<TRIPOS>ATOM
      1 C1          -0.7800     1.0350     0.0500 cc         1 H05       0.000000
      2 N2           0.5610     0.8500     0.0490 na         1 H05       0.048900
      3 N3          -1.0180     2.3310     0.0730 nd         1 H05      -0.434300
      4 N4           1.2620     2.0220     0.0700 nc         1 H05      -0.642100
      5 C5           1.1180    -0.4620     0.0220 cc         1 H05       0.593800
      6 N6           0.3140    -1.5580    -0.0020 nd         1 H05      -0.707000
      7 C7           0.2510     2.8590     0.0900 cd         1 H05       0.732200
      8 C8          -1.6810    -0.0760     0.0260 ca         1 H05      -0.077000
      9 C9          -1.0840    -1.3480     0.0000 ca         1 H05       0.287000
     10 N10          0.4730     4.1660     0.1020 nv         1 H05      -0.986200
     11 C11         -3.0810     0.0750     0.0270 ca         1 H05      -0.053000
     12 C12          2.6270    -0.6240     0.0190 c3         1 H05      -0.127700
     13 C13         -1.9210    -2.4790    -0.0240 ca         1 H05      -0.090000
     14 C14          3.1650    -2.0800    -0.0000 c3         1 H05      -0.067400
     15 C15         -3.9020    -1.0640     0.0020 ca         1 H05      -0.120000
     16 C16         -3.3220    -2.3430    -0.0240 ca         1 H05      -0.086000
     17 C17          4.7050    -2.1520    -0.0000 c3         1 H05      -0.093100
     18 HN10         1.4000     4.4440    -0.1900 hn         1 H05       0.475500
     19 HN1A        -0.2920     4.7490    -0.2100 hn         1 H05       0.475500
     20 H11         -3.5270     1.0670     0.0460 ha         1 H05       0.137000
     21 H12          3.0290    -0.0920    -0.8500 hc         1 H05       0.075700
     22 H12A         3.0290    -0.1160     0.9030 hc         1 H05       0.075700
     23 H13         -1.4780    -3.4710    -0.0440 ha         1 H05       0.134000
     24 H14          2.7850    -2.6240     0.8740 hc         1 H05       0.053700
     25 H14A         2.7870    -2.5990    -0.8910 hc         1 H05       0.053700
     26 H15         -4.9850    -0.9550     0.0020 ha         1 H05       0.120000
     27 H16         -3.9540    -3.2280    -0.0430 ha         1 H05       0.119000
     28 H17          5.1160    -1.6730     0.8970 hc         1 H05       0.034033
     29 H17A         5.0390    -3.1960    -0.0140 hc         1 H05       0.034033
     30 H17B         5.1170    -1.6480    -0.8830 hc         1 H05       0.034033
@<TRIPOS>BOND
     1     1     2 1   
     2     1     3 2   
     3     1     8 1   
     4     2     4 1   
     5     2     5 1   
     6     3     7 1   
     7     4     7 2   
     8     5     6 2   
     9     5    12 1   
    10     6     9 1   
    11     7    10 1   
    12     8     9 ar  
    13     8    11 ar  
    14     9    13 ar  
    15    10    18 1   
    16    10    19 1   
    17    11    15 ar  
    18    11    20 1   
    19    12    14 1   
    20    12    21 1   
    21    12    22 1   
    22    13    16 ar  
    23    13    23 1   
    24    14    17 1   
    25    14    24 1   
    26    14    25 1   
    27    15    16 ar  
    28    15    26 1   
    29    16    27 1   
    30    17    28 1   
    31    17    29 1   
    32    17    30 1   
@<TRIPOS>SUBSTRUCTURE
     1 H05         1 TEMP              0 ****  ****    0 ROOT
