@<TRIPOS>MOLECULE
H05
   30    32     1     0     0
SMALL
bcc


@<TRIPOS>ATOM
      1 C1          -0.7680     1.0280     0.0350 cc         1 H05       0.050700
      2 N2           0.5640     0.7640     0.0380 na         1 H05      -0.001800
      3 N3          -0.9620     2.3260     0.0460 nd         1 H05      -0.434300
      4 N4           1.2640     1.9180     0.0480 nc         1 H05      -0.642100
      5 C5           1.0900    -0.5020     0.0250 cc         1 H05       0.593800
      6 N6           0.3080    -1.5230     0.0090 nd         1 H05      -0.707000
      7 C7           0.3010     2.8230     0.0540 cd         1 H05       0.732200
      8 C8          -1.6600    -0.0800     0.0210 ca         1 H05      -0.142300
      9 C9          -1.0530    -1.3510     0.0070 ca         1 H05       0.417600
     10 N10          0.5410     4.1550     0.1180 nv         1 H05      -0.875800
     11 C11         -3.0550     0.0500     0.0200 ca         1 H05      -0.071000
     12 C12          2.5770    -0.6200     0.0300 c3         1 H05      -0.127700
     13 C13         -1.8770    -2.4880    -0.0080 ca         1 H05      -0.173300
     14 C14          3.0850    -2.0530    -0.0160 c3         1 H05      -0.067400
     15 C15         -3.8400    -1.0790     0.0050 ca         1 H05      -0.138000
     16 C16         -3.2460    -2.3500    -0.0090 ca         1 H05      -0.104000
     17 C17          4.6060    -2.1010     0.0000 c3         1 H05      -0.093100
     18 HN10         1.4590     4.4590    -0.1610 hn         1 H05       0.420300
     19 HN1A        -0.2000     4.7480    -0.2160 hn         1 H05       0.420300
     20 H11         -3.5010     1.0360     0.0310 ha         1 H05       0.155000
     21 H12          2.9710    -0.0500    -0.8180 hc         1 H05       0.075700
     22 H12A         2.9580    -0.1100     0.9220 hc         1 H05       0.075700
     23 H13         -1.4150    -3.4660    -0.0190 ha         1 H05       0.152000
     24 H14          2.6870    -2.6120     0.8340 hc         1 H05       0.053700
     25 H14A         2.7080    -2.5470    -0.9130 hc         1 H05       0.053700
     26 H15         -4.9180    -0.9890     0.0040 ha         1 H05       0.138000
     27 H16         -3.8740    -3.2310    -0.0220 ha         1 H05       0.137000
     28 H17          5.0090    -1.6510     0.9090 hc         1 H05       0.034033
     29 H17A         4.9650    -3.1300    -0.0470 hc         1 H05       0.034033
     30 H17B         5.0300    -1.5640    -0.8500 hc         1 H05       0.034033
@<TRIPOS>BOND
     1     1     2 1   
     2     1     3 2   
     3     1     8 1   
     4     2     4 1   
     5     2     5 1   
     6     3     7 1   
     7     4     7 2   
     8     5     6 2   
     9     5    12 1   
    10     6     9 1   
    11     7    10 1   
    12     8     9 ar  
    13     8    11 ar  
    14     9    13 ar  
    15    10    18 1   
    16    10    19 1   
    17    11    15 ar  
    18    11    20 1   
    19    12    14 1   
    20    12    21 1   
    21    12    22 1   
    22    13    16 ar  
    23    13    23 1   
    24    14    17 1   
    25    14    24 1   
    26    14    25 1   
    27    15    16 ar  
    28    15    26 1   
    29    16    27 1   
    30    17    28 1   
    31    17    29 1   
    32    17    30 1   
@<TRIPOS>SUBSTRUCTURE
     1 H05         1 TEMP              0 ****  ****    0 ROOT
