@<TRIPOS>MOLECULE
H06
   33    34     1     0     0
SMALL
No Charge or Current Charge


@<TRIPOS>ATOM
      1 O            2.2730     1.3020    -0.9780 o          1 H06      -0.538100
      2 N1          -6.9130    -0.7540    -0.5930 n2         1 H06      -0.828100
      3 C2          -4.6390    -0.0380    -0.0670 ca         1 H06      -0.133900
      4 N2          -6.6700     1.2530     0.3910 nv         1 H06      -1.076200
      5 C3          -4.0030    -0.9680    -0.9210 ca         1 H06      -0.084000
      6 N3           0.4600     0.0670     0.7870 n2         1 H06      -0.411300
      7 C4          -2.6070    -1.1330    -0.9000 ca         1 H06      -0.093500
      8 N4           1.8270    -0.1580     0.7320 ns         1 H06      -0.276900
      9 C5          -1.8090    -0.3840    -0.0150 ca         1 H06      -0.116900
     10 N5           5.9430    -1.1280     0.9680 nb         1 H06      -0.669000
     11 C6          -0.3260    -0.5840    -0.0160 ce         1 H06       0.374800
     12 C7           2.6860     0.4890    -0.1580 c          1 H06       0.639700
     13 C8           4.1500     0.1420    -0.0740 ca         1 H06      -0.213600
     14 C9           4.6370    -0.7910     0.8630 ca         1 H06       0.361900
     15 C10          6.8220    -0.5360     0.1300 ca         1 H06       0.357900
     16 C11          6.4330     0.4050    -0.8350 ca         1 H06      -0.171000
     17 C12          5.0780     0.7540    -0.9440 ca         1 H06      -0.020000
     18 C13         -2.4370     0.5300     0.8580 ca         1 H06      -0.093500
     19 C14         -3.8340     0.6960     0.8370 ca         1 H06      -0.084000
     20 HN1         -7.8680    -0.5370    -0.2890 hn         1 H06       0.371400
     21 HN2         -7.5690     1.5090    -0.0000 hn         1 H06       0.462000
     22 HN2A        -6.0190     2.0210     0.5040 hn         1 H06       0.462000
     23 H3          -4.5920    -1.5640    -1.6160 ha         1 H06       0.130000
     24 H4          -2.1460    -1.8500    -1.5760 ha         1 H06       0.126000
     25 HN4          2.2610    -0.8140     1.3730 hn         1 H06       0.308500
     26 H6           0.0700    -1.3120    -0.7280 h4         1 H06      -0.014200
     27 H9           3.9730    -1.2970     1.5620 h4         1 H06       0.018100
     28 H10          7.8670    -0.8240     0.2350 h4         1 H06       0.024100
     29 H11          7.1770     0.8540    -1.4860 ha         1 H06       0.132000
     30 H12          4.7620     1.4840    -1.6880 ha         1 H06       0.142000
     31 H13         -1.8480     1.1130     1.5630 ha         1 H06       0.126000
     32 H14         -4.2830     1.3930     1.5400 ha         1 H06       0.130000
     33 C1          -6.1340     0.1050    -0.0780 ce         1 H06       0.659800
@<TRIPOS>BOND
     1     1    12 2   
     2     2    20 1   
     3     2    33 2   
     4     3     5 ar  
     5     3    19 ar  
     6     3    33 1   
     7     4    21 1   
     8     4    22 1   
     9     4    33 1   
    10     5     7 ar  
    11     5    23 1   
    12     6     8 1   
    13     6    11 2   
    14     7     9 ar  
    15     7    24 1   
    16     8    12 1   
    17     8    25 1   
    18     9    11 1   
    19     9    18 ar  
    20    10    14 ar  
    21    10    15 ar  
    22    11    26 1   
    23    12    13 1   
    24    13    14 ar  
    25    13    17 ar  
    26    14    27 1   
    27    15    16 ar  
    28    15    28 1   
    29    16    17 ar  
    30    16    29 1   
    31    17    30 1   
    32    18    19 ar  
    33    18    31 1   
    34    19    32 1   
@<TRIPOS>SUBSTRUCTURE
     1 H06         1 TEMP              0 ****  ****    0 ROOT
