@<TRIPOS>MOLECULE
H06
   33    34     1     0     0
SMALL
abcg2


@<TRIPOS>ATOM
      1 O            2.4650     1.9100     0.3960 o          1 H06      -0.538100
      2 N1          -6.8070    -0.8560     0.3420 n2         1 H06      -0.828100
      3 C2          -4.5830    -0.0620     0.0490 ca         1 H06      -0.133900
      4 N2          -6.4670     1.4410    -0.0590 nv         1 H06      -1.076200
      5 C3          -4.0850    -1.3250    -0.2590 ca         1 H06      -0.084000
      6 N3           0.4700     0.1180     0.0920 n2         1 H06      -0.411300
      7 C4          -2.7200    -1.5470    -0.3210 ca         1 H06      -0.093500
      8 N4           1.7680    -0.2080    -0.0100 ns         1 H06      -0.276900
      9 C5          -1.8180    -0.5150    -0.0650 ca         1 H06      -0.116900
     10 N5           5.7570    -1.4800     0.3560 nb         1 H06      -0.669000
     11 C6          -0.3870    -0.7900    -0.1490 ce         1 H06       0.374800
     12 C7           2.7210     0.7430     0.1790 c          1 H06       0.639700
     13 C8           4.1240     0.2510     0.0880 ca         1 H06      -0.213600
     14 C9           4.5050    -1.0500     0.4100 ca         1 H06       0.361900
     15 C10          6.6950    -0.6230    -0.0270 ca         1 H06       0.357900
     16 C11          6.4290     0.7000    -0.3550 ca         1 H06      -0.171000
     17 C12          5.1220     1.1460    -0.2870 ca         1 H06      -0.020000
     18 C13         -2.3160     0.7480     0.2590 ca         1 H06      -0.093500
     19 C14         -3.6790     0.9700     0.3120 ca         1 H06      -0.084000
     20 HN1         -7.7890    -0.5950     0.3240 hn         1 H06       0.371400
     21 HN2         -7.4560     1.6010    -0.1660 hn         1 H06       0.462000
     22 HN2A        -5.8980     2.0620    -0.6100 hn         1 H06       0.462000
     23 H3          -4.7740    -2.1330    -0.4600 ha         1 H06       0.130000
     24 H4          -2.3520    -2.5330    -0.5760 ha         1 H06       0.126000
     25 HN4          2.0260    -1.1420    -0.3060 hn         1 H06       0.308500
     26 H6          -0.0970    -1.8050    -0.4310 h4         1 H06      -0.014200
     27 H9           3.7750    -1.7760     0.7510 h4         1 H06       0.018100
     28 H10          7.7090    -1.0020    -0.0700 h4         1 H06       0.024100
     29 H11          7.2310     1.3590    -0.6540 ha         1 H06       0.132000
     30 H12          4.8770     2.1710    -0.5300 ha         1 H06       0.142000
     31 H13         -1.6330     1.5600     0.4700 ha         1 H06       0.126000
     32 H14         -4.0340     1.9560     0.5810 ha         1 H06       0.130000
     33 C1          -6.0560     0.1500     0.1050 ce         1 H06       0.659800
@<TRIPOS>BOND
     1     1    12 2   
     2     2    20 1   
     3     2    33 2   
     4     3     5 ar  
     5     3    19 ar  
     6     3    33 1   
     7     4    21 1   
     8     4    22 1   
     9     4    33 1   
    10     5     7 ar  
    11     5    23 1   
    12     6     8 1   
    13     6    11 2   
    14     7     9 ar  
    15     7    24 1   
    16     8    12 1   
    17     8    25 1   
    18     9    11 1   
    19     9    18 ar  
    20    10    14 ar  
    21    10    15 ar  
    22    11    26 1   
    23    12    13 1   
    24    13    14 ar  
    25    13    17 ar  
    26    14    27 1   
    27    15    16 ar  
    28    15    28 1   
    29    16    17 ar  
    30    16    29 1   
    31    17    30 1   
    32    18    19 ar  
    33    18    31 1   
    34    19    32 1   
@<TRIPOS>SUBSTRUCTURE
     1 H06         1 TEMP              0 ****  ****    0 ROOT
