@<TRIPOS>MOLECULE
H08
   45    48     1     0     0
SMALL
abcg2


@<TRIPOS>ATOM
      1 CAA          0.0780    -7.4290    -7.1350 c3         1 H08       0.078900
      2 NAB         -0.5330    -6.6060    -8.1600 na         1 H08       0.120800
      3 CAF          0.1030    -5.8030    -9.0480 cc         1 H08      -0.164000
      4 NAC         -1.8660    -6.5920    -8.3160 nc         1 H08      -0.509800
      5 CAD         -2.0960    -5.7570    -9.3280 cd         1 H08       0.210900
      6 CAE         -0.8900    -5.2290    -9.8280 cd         1 H08      -0.074400
      7 NAT         -0.7880    -4.3230   -10.8860 ns         1 H08      -0.373100
      8 CAS          0.3630    -3.7810   -11.3570 c          1 H08       0.625300
      9 OAR          1.4710    -4.0970   -10.9230 o          1 H08      -0.593100
     10 CAK          0.1900    -2.7550   -12.4260 cc         1 H08      -0.216400
     11 CAL         -0.7310    -1.7740   -12.2630 cd         1 H08      -0.013400
     12 CAJ          1.0380    -2.7270   -13.5940 ca         1 H08       0.032200
     13 CAN          1.9900    -3.7240   -13.8830 ca         1 H08      -0.109000
     14 CAO          2.7480    -3.6590   -15.0340 ca         1 H08      -0.075000
     15 CAP          2.5890    -2.5990   -15.9370 ca         1 H08      -0.128000
     16 CAQ          1.6590    -1.6160   -15.6770 ca         1 H08      -0.048000
     17 CAI          0.8760    -1.6680   -14.5150 ca         1 H08      -0.166600
     18 CAH         -0.1110    -0.6100   -14.2920 c          1 H08       0.568600
     19 OAG         -0.2780     0.3510   -15.0430 o          1 H08      -0.537000
     20 NAM         -0.8880    -0.7420   -13.1480 n          1 H08      -0.294000
     21 CAU         -1.8720     0.3100   -12.8730 c3         1 H08       0.146300
     22 CAV         -1.2480     1.5960   -12.3840 ca         1 H08      -0.103300
     23 CAW         -1.7600     2.8180   -12.8100 ca         1 H08      -0.084000
     24 CAX         -1.2310     4.0180   -12.3500 ca         1 H08      -0.099500
     25 CAY         -0.1710     3.9830   -11.4550 ca         1 H08       0.130000
     26 CL           0.5120     5.4880   -10.8730 cl         1 H08      -0.210000
     27 CAZ          0.3630     2.7790   -11.0170 ca         1 H08      -0.099500
     28 CBA         -0.1830     1.5900   -11.4860 ca         1 H08      -0.084000
     29 H1          -0.3220    -7.1610    -6.1570 h1         1 H08       0.057700
     30 H2          -0.1220    -8.4830    -7.3320 h1         1 H08       0.057700
     31 H3           1.1510    -7.2560    -7.1490 h1         1 H08       0.057700
     32 H4           1.1710    -5.7000    -9.0630 h4         1 H08       0.181000
     33 H5          -3.1020    -5.5590    -9.6650 h4         1 H08       0.036100
     34 H6          -1.6490    -4.0820   -11.3530 hn         1 H08       0.322500
     35 H7          -1.3790    -1.7350   -11.3990 h4         1 H08       0.202000
     36 H8           2.1270    -4.5430   -13.1930 ha         1 H08       0.138000
     37 H9           3.4730    -4.4370   -15.2410 ha         1 H08       0.118000
     38 H10          3.1900    -2.5570   -16.8370 ha         1 H08       0.120000
     39 H11          1.5120    -0.7930   -16.3620 ha         1 H08       0.137000
     40 H12         -2.4360     0.4970   -13.7840 h1         1 H08       0.068700
     41 H13         -2.5620    -0.0860   -12.1270 h1         1 H08       0.068700
     42 H14         -2.5790     2.8400   -13.5200 ha         1 H08       0.119500
     43 H15         -1.6300     4.9640   -12.6890 ha         1 H08       0.132500
     44 H16          1.1910     2.7680   -10.3220 ha         1 H08       0.132500
     45 H17          0.2400     0.6530   -11.1460 ha         1 H08       0.119500
@<TRIPOS>BOND
     1     1     2 1   
     2     1    29 1   
     3     1    30 1   
     4     1    31 1   
     5     2     3 1   
     6     2     4 1   
     7     3     6 2   
     8     3    32 1   
     9     4     5 2   
    10     5     6 1   
    11     5    33 1   
    12     6     7 1   
    13     7     8 1   
    14     7    34 1   
    15     8     9 2   
    16     8    10 1   
    17    10    11 2   
    18    10    12 1   
    19    11    20 1   
    20    11    35 1   
    21    12    13 ar  
    22    12    17 ar  
    23    13    14 ar  
    24    13    36 1   
    25    14    15 ar  
    26    14    37 1   
    27    15    16 ar  
    28    15    38 1   
    29    16    17 ar  
    30    16    39 1   
    31    17    18 1   
    32    18    19 2   
    33    18    20 1   
    34    20    21 1   
    35    21    22 1   
    36    21    40 1   
    37    21    41 1   
    38    22    23 ar  
    39    22    28 ar  
    40    23    24 ar  
    41    23    42 1   
    42    24    25 ar  
    43    24    43 1   
    44    25    26 1   
    45    25    27 ar  
    46    27    28 ar  
    47    27    44 1   
    48    28    45 1   
@<TRIPOS>SUBSTRUCTURE
     1 H08         1 TEMP              0 ****  ****    0 ROOT
