@<TRIPOS>MOLECULE
H08
   45    48     1     0     0
SMALL
No Charge or Current Charge


@<TRIPOS>ATOM
      1 CAA          0.3320    -6.7420    -6.9110 c3         1 H08       0.078900
      2 NAB         -0.2390    -5.7900    -7.8760 na         1 H08       0.120800
      3 CAF          0.3510    -5.3750    -9.0680 cc         1 H08      -0.164000
      4 NAC         -1.4750    -5.2190    -7.6320 nc         1 H08      -0.509800
      5 CAD         -1.6520    -4.4420    -8.6840 cd         1 H08       0.210900
      6 CAE         -0.5670    -4.5070    -9.5840 cd         1 H08      -0.074400
      7 NAT         -0.4940    -3.7860   -10.7740 ns         1 H08      -0.373100
      8 CAS          0.5040    -3.7930   -11.7420 c          1 H08       0.625300
      9 OAR          1.4750    -4.5270   -11.6380 o          1 H08      -0.593100
     10 CAK          0.2850    -2.8300   -12.8830 cc         1 H08      -0.216400
     11 CAL         -0.6800    -1.8310   -12.7620 cd         1 H08      -0.013400
     12 CAJ          1.0960    -2.8110   -14.1310 ca         1 H08       0.032200
     13 CAN          1.9790    -3.8650   -14.4810 ca         1 H08      -0.109000
     14 CAO          2.7550    -3.8190   -15.6500 ca         1 H08      -0.075000
     15 CAP          2.6560    -2.7240   -16.5130 ca         1 H08      -0.128000
     16 CAQ          1.7580    -1.6920   -16.2180 ca         1 H08      -0.048000
     17 CAI          0.9680    -1.7370   -15.0460 ca         1 H08      -0.166600
     18 CAH         -0.0410    -0.6550   -14.8100 c          1 H08       0.568600
     19 OAG         -0.1470     0.2960   -15.5770 o          1 H08      -0.537000
     20 NAM         -0.8630    -0.7960   -13.6780 n          1 H08      -0.294000
     21 CAU         -1.9010     0.2310   -13.4080 c3         1 H08       0.146300
     22 CAV         -1.5040     1.1980   -12.3000 ca         1 H08      -0.103300
     23 CAW         -0.5130     2.1730   -12.5340 ca         1 H08      -0.084000
     24 CAX         -0.1380     3.0620   -11.5110 ca         1 H08      -0.099500
     25 CAY         -0.7500     2.9790   -10.2500 ca         1 H08       0.130000
     26 Cl          -0.2780     4.0900    -8.9700 cl         1 H08      -0.210000
     27 CAZ         -1.7380     2.0110   -10.0090 ca         1 H08      -0.099500
     28 CBA         -2.1150     1.1220   -11.0310 ca         1 H08      -0.084000
     29 H1           0.4600    -6.2480    -5.9410 h1         1 H08       0.057700
     30 H2          -0.3420    -7.5990    -6.7990 h1         1 H08       0.057700
     31 H3           1.3070    -7.0940    -7.2690 h1         1 H08       0.057700
     32 H4           1.3170    -5.7210    -9.4120 h4         1 H08       0.181000
     33 H5          -2.5590    -3.8550    -8.7670 h4         1 H08       0.036100
     34 H6          -1.2740    -3.1880   -11.0020 hn         1 H08       0.322500
     35 H7          -1.3360    -1.7050   -11.9060 h4         1 H08       0.202000
     36 H8           2.0770    -4.7550   -13.8720 ha         1 H08       0.138000
     37 H9           3.4300    -4.6380   -15.8870 ha         1 H08       0.118000
     38 H10          3.2560    -2.6860   -17.4200 ha         1 H08       0.120000
     39 H11          1.6660    -0.8620   -16.9160 ha         1 H08       0.137000
     40 H12         -2.1320     0.8010   -14.3170 h1         1 H08       0.068700
     41 H13         -2.8310    -0.2820   -13.1290 h1         1 H08       0.068700
     42 H14         -0.0340     2.2430   -13.5080 ha         1 H08       0.119500
     43 H15          0.6270     3.8120   -11.6950 ha         1 H08       0.132500
     44 H16         -2.2100     1.9500    -9.0320 ha         1 H08       0.132500
     45 H17         -2.8820     0.3760   -10.8350 ha         1 H08       0.119500
@<TRIPOS>BOND
     1     1     2 1   
     2     1    29 1   
     3     1    30 1   
     4     1    31 1   
     5     2     3 1   
     6     2     4 1   
     7     3     6 2   
     8     3    32 1   
     9     4     5 2   
    10     5     6 1   
    11     5    33 1   
    12     6     7 1   
    13     7     8 1   
    14     7    34 1   
    15     8     9 2   
    16     8    10 1   
    17    10    11 2   
    18    10    12 1   
    19    11    20 1   
    20    11    35 1   
    21    12    13 ar  
    22    12    17 ar  
    23    13    14 ar  
    24    13    36 1   
    25    14    15 ar  
    26    14    37 1   
    27    15    16 ar  
    28    15    38 1   
    29    16    17 ar  
    30    16    39 1   
    31    17    18 1   
    32    18    19 2   
    33    18    20 1   
    34    20    21 1   
    35    21    22 1   
    36    21    40 1   
    37    21    41 1   
    38    22    23 ar  
    39    22    28 ar  
    40    23    24 ar  
    41    23    42 1   
    42    24    25 ar  
    43    24    43 1   
    44    25    26 1   
    45    25    27 ar  
    46    27    28 ar  
    47    27    44 1   
    48    28    45 1   
@<TRIPOS>SUBSTRUCTURE
     1 H08         1 TEMP              0 ****  ****    0 ROOT
