@<TRIPOS>MOLECULE
H09
   69    72     1     0     0
SMALL
abcg2


@<TRIPOS>ATOM
      1 C1          18.3950   -13.8700    12.4560 ca         1 H09      -0.022300
      2 C2          18.2760   -15.2690    12.4100 ca         1 H09       0.125100
      3 C3          18.4550   -15.9640    11.2200 ca         1 H09      -0.166000
      4 C7          18.8510   -11.6650    11.2290 c6         1 H09       0.316000
      5 C8          19.8930   -11.1750    12.1820 cc         1 H09      -0.063300
      6 C9          19.7920   -10.0600    12.9560 cd         1 H09      -0.128400
      7 C10         21.0170    -9.9550    13.6830 ca         1 H09      -0.088800
      8 C11         21.5170    -9.0500    14.6250 ca         1 H09      -0.061000
      9 C12         22.7830    -9.2520    15.1420 ca         1 H09      -0.143000
     10 C13         23.5640   -10.3450    14.7350 ca         1 H09      -0.093000
     11 C14         23.0970   -11.2560    13.8050 ca         1 H09      -0.129000
     12 C15         21.8210   -11.0510    13.2870 ca         1 H09      -0.042200
     13 C16         18.5650    -9.2170    12.9540 c6         1 H09       0.006800
     14 C19         15.2660   -11.7320    11.5090 c3         1 H09       0.186000
     15 C20         14.0400   -11.9750    10.6560 c3         1 H09       0.110600
     16 C21         18.3670    -8.8160    10.4640 c3         1 H09      -0.126100
     17 C22         17.7210   -17.2650    13.5860 c3         1 H09       0.159600
     18 C24         16.6790   -19.5850    16.3380 c3         1 H09       0.168800
     19 F3          17.0390   -21.6270    18.4530 f          1 H09      -0.276000
     20 C26         17.6250   -20.3620    18.5540 c3         1 H09       0.183600
     21 C25         17.9260   -19.8060    17.1860 c3         1 H09      -0.113400
     22 N2          17.0000   -19.0730    15.0170 n7         1 H09      -0.869400
     23 C23         17.3040   -17.6560    14.9900 c3         1 H09       0.152800
     24 O1          17.9830   -15.8750    13.5810 os         1 H09      -0.343100
     25 C4          18.7670   -15.2770    10.0590 ca         1 H09      -0.126000
     26 C5          18.8860   -13.9090    10.1110 ca         1 H09       0.123000
     27 F2          19.1870   -13.2630     8.9640 f          1 H09      -0.189000
     28 C6          18.7010   -13.1760    11.2800 ca         1 H09      -0.116300
     29 C           18.2150   -13.1820    13.7780 c3         1 H09      -0.049800
     30 N1          17.6030   -10.9630    11.5330 n3         1 H09      -0.734600
     31 C18         16.4830   -11.3260    10.6940 c3         1 H09       0.135800
     32 F           15.5430   -12.8560    12.2330 f          1 H09      -0.107500
     33 F1          14.9880   -10.7710    12.4430 f          1 H09      -0.107500
     34 O           12.9900   -12.3920    11.4850 oh         1 H09      -0.632000
     35 C17         17.7620    -9.5090    11.6850 c6         1 H09       0.195500
     36 N           21.1090   -11.7730    12.3700 na         1 H09      -0.212700
     37 H1          18.3640   -17.0410    11.1750 ha         1 H09       0.124000
     38 H2          19.2010   -11.4080    10.2190 h1         1 H09       0.051700
     39 H3          20.9220    -8.2030    14.9450 ha         1 H09       0.113000
     40 H4          23.1820    -8.5590    15.8710 ha         1 H09       0.109000
     41 H5          24.5520   -10.4780    15.1570 ha         1 H09       0.109000
     42 H6          23.7030   -12.0980    13.4910 ha         1 H09       0.112000
     43 H7          18.8110    -8.1530    12.9950 hc         1 H09       0.056700
     44 H8          17.9450    -9.4260    13.8330 hc         1 H09       0.056700
     45 H9          14.2980   -12.7230     9.8960 h1         1 H09       0.034200
     46 H10         13.8090   -11.0450    10.1210 h1         1 H09       0.034200
     47 H11         18.3010    -7.7330    10.5810 hc         1 H09       0.040367
     48 H12         19.4200    -9.0660    10.3230 hc         1 H09       0.040367
     49 H13         17.8350    -9.0770     9.5470 hc         1 H09       0.040367
     50 H14         16.9210   -17.5060    12.8750 h1         1 H09       0.040200
     51 H15         18.6100   -17.8330    13.2910 h1         1 H09       0.040200
     52 H16         15.9830   -18.9290    16.8850 h1         1 H09       0.037200
     53 H17         16.1670   -20.5390    16.2040 h1         1 H09       0.037200
     54 H18         16.9320   -19.7180    19.0990 h1         1 H09       0.042200
     55 H19         18.5380   -20.4660    19.1430 h1         1 H09       0.042200
     56 H20         18.6200   -20.4650    16.6570 hc         1 H09       0.058700
     57 H21         18.4540   -18.8610    17.3430 hc         1 H09       0.058700
     58 H22         16.2110   -19.2450    14.4060 hn         1 H09       0.413000
     59 H24         18.1290   -17.4500    15.6750 h1         1 H09       0.046700
     60 H25         16.4590   -17.0300    15.3140 h1         1 H09       0.046700
     61 H26         18.9140   -15.8050     9.1260 ha         1 H09       0.131000
     62 H27         17.3990   -13.6270    14.3460 hc         1 H09       0.060033
     63 H28         19.1170   -13.2760    14.3870 hc         1 H09       0.060033
     64 H29         18.0000   -12.1270    13.6580 hc         1 H09       0.060033
     65 H31         16.7240   -12.1620    10.0350 h1         1 H09       0.055200
     66 H32         16.1900   -10.5080    10.0250 h1         1 H09       0.055200
     67 H33         12.2150   -12.5370    10.9350 ho         1 H09       0.449000
     68 H34         16.7590    -9.1060    11.8300 h1         1 H09       0.065700
     69 H35         21.4210   -12.6200    11.9240 hn         1 H09       0.354000
@<TRIPOS>BOND
     1     1     2 ar  
     2     1    28 ar  
     3     1    29 1   
     4     2     3 ar  
     5     2    24 1   
     6     3    25 ar  
     7     3    37 1   
     8     4     5 1   
     9     4    28 1   
    10     4    30 1   
    11     4    38 1   
    12     5     6 2   
    13     5    36 1   
    14     6     7 1   
    15     6    13 1   
    16     7     8 ar  
    17     7    12 ar  
    18     8     9 ar  
    19     8    39 1   
    20     9    10 ar  
    21     9    40 1   
    22    10    11 ar  
    23    10    41 1   
    24    11    12 ar  
    25    11    42 1   
    26    12    36 1   
    27    13    35 1   
    28    13    43 1   
    29    13    44 1   
    30    14    15 1   
    31    14    31 1   
    32    14    32 1   
    33    14    33 1   
    34    15    34 1   
    35    15    45 1   
    36    15    46 1   
    37    16    35 1   
    38    16    47 1   
    39    16    48 1   
    40    16    49 1   
    41    17    23 1   
    42    17    24 1   
    43    17    50 1   
    44    17    51 1   
    45    18    21 1   
    46    18    22 1   
    47    18    52 1   
    48    18    53 1   
    49    19    20 1   
    50    20    21 1   
    51    20    54 1   
    52    20    55 1   
    53    21    56 1   
    54    21    57 1   
    55    22    23 1   
    56    22    58 1   
    57    23    59 1   
    58    23    60 1   
    59    25    26 ar  
    60    25    61 1   
    61    26    27 1   
    62    26    28 ar  
    63    29    62 1   
    64    29    63 1   
    65    29    64 1   
    66    30    31 1   
    67    30    35 1   
    68    31    65 1   
    69    31    66 1   
    70    34    67 1   
    71    35    68 1   
    72    36    69 1   
@<TRIPOS>SUBSTRUCTURE
     1 H09         1 TEMP              0 ****  ****    0 ROOT
