@<TRIPOS>MOLECULE
H09
   69    72     1     0     0
SMALL
No Charge or Current Charge


@<TRIPOS>ATOM
      1 C1          18.2590   -13.9830    12.4730 ca         1 H09      -0.022300
      2 C2          18.1280   -15.3960    12.4040 ca         1 H09       0.125100
      3 C3          18.2550   -16.0600    11.1650 ca         1 H09      -0.166000
      4 C7          18.7280   -11.7060    11.2860 c6         1 H09       0.316000
      5 C8          19.8510   -11.2870    12.2180 cc         1 H09      -0.063300
      6 C9          19.8210   -10.2080    13.0830 cd         1 H09      -0.128400
      7 C10         21.0710   -10.1230    13.7960 ca         1 H09      -0.088800
      8 C11         21.5290    -9.2290    14.7710 ca         1 H09      -0.061000
      9 C12         22.8320    -9.4290    15.2780 ca         1 H09      -0.143000
     10 C13         23.6300   -10.5000    14.8050 ca         1 H09      -0.093000
     11 C14         23.1330   -11.3830    13.8200 ca         1 H09      -0.129000
     12 C15         21.8380   -11.1590    13.3360 ca         1 H09      -0.042200
     13 C16         18.5870    -9.3450    13.1710 c6         1 H09       0.006800
     14 C19         14.9410   -10.7060    10.8760 c3         1 H09       0.186000
     15 C20         13.8760   -11.4270     9.9990 c3         1 H09       0.110600
     16 C21         18.2550    -8.6870    10.7060 c3         1 H09      -0.126100
     17 C22         17.7390   -17.5350    13.5990 c3         1 H09       0.159600
     18 C24         17.0350   -19.9440    16.5500 c3         1 H09       0.168800
     19 F3          17.7990   -21.7740    18.7770 f          1 H09      -0.276000
     20 C26         18.0520   -20.4440    18.8620 c3         1 H09       0.183600
     21 C25         18.2810   -19.8510    17.4580 c3         1 H09      -0.113400
     22 N2          17.3130   -19.4310    15.1910 n7         1 H09      -0.869400
     23 C23         17.4810   -17.9580    15.0650 c3         1 H09       0.152800
     24 O1          17.8830   -16.1020    13.5700 os         1 H09      -0.343100
     25 C4          18.5170   -15.3290    10.0000 ca         1 H09      -0.126000
     26 C5          18.6620   -13.9380    10.0590 ca         1 H09       0.123000
     27 F2          18.9180   -13.2760     8.9080 f          1 H09      -0.189000
     28 C6          18.5420   -13.2430    11.2850 ca         1 H09      -0.116300
     29 C           18.1150   -13.2900    13.8370 c3         1 H09      -0.049800
     30 N1          17.4570   -10.9560    11.5840 n3         1 H09      -0.734600
     31 C18         16.3800   -11.2320    10.5750 c3         1 H09       0.135800
     32 F           14.6460   -10.8900    12.1870 f          1 H09      -0.107500
     33 F1          14.8770    -9.3730    10.6340 f          1 H09      -0.107500
     34 O           12.5430   -10.9380    10.2480 oh         1 H09      -0.632000
     35 C17         17.6890    -9.5040    11.9060 c6         1 H09       0.195500
     36 N           21.1250   -11.8680    12.3830 na         1 H09      -0.212700
     37 H1          18.1550   -17.1390    11.0850 ha         1 H09       0.124000
     38 H2          19.0560   -11.4020    10.2820 h1         1 H09       0.051700
     39 H3          20.9050    -8.4120    15.1250 ha         1 H09       0.113000
     40 H4          23.2250    -8.7560    16.0370 ha         1 H09       0.109000
     41 H5          24.6320   -10.6450    15.2030 ha         1 H09       0.109000
     42 H6          23.7380   -12.2080    13.4500 ha         1 H09       0.112000
     43 H7          18.8560    -8.2900    13.3160 hc         1 H09       0.056700
     44 H8          18.0060    -9.6340    14.0570 hc         1 H09       0.056700
     45 H9          13.9240   -12.5060    10.2030 h1         1 H09       0.034200
     46 H10         14.1370   -11.2850     8.9410 h1         1 H09       0.034200
     47 H11         18.3500    -7.6270    10.9700 hc         1 H09       0.040367
     48 H12         19.2480    -9.0370    10.4020 hc         1 H09       0.040367
     49 H13         17.5960    -8.7410     9.8330 hc         1 H09       0.040367
     50 H14         16.8950   -17.8510    12.9740 h1         1 H09       0.040200
     51 H15         18.6530   -18.0230    13.2360 h1         1 H09       0.040200
     52 H16         16.2010   -19.3970    17.0100 h1         1 H09       0.037200
     53 H17         16.7360   -20.9990    16.4830 h1         1 H09       0.037200
     54 H18         17.2020   -19.9520    19.3510 h1         1 H09       0.042200
     55 H19         18.9480   -20.3000    19.4800 h1         1 H09       0.042200
     56 H20         19.1210   -20.3700    16.9820 hc         1 H09       0.058700
     57 H21         18.5750   -18.8030    17.5780 hc         1 H09       0.058700
     58 H22         16.5210   -19.7030    14.5920 hn         1 H09       0.413000
     59 H24         18.3280   -17.6110    15.6720 h1         1 H09       0.046700
     60 H25         16.5820   -17.4390    15.4250 h1         1 H09       0.046700
     61 H26         18.6130   -15.8410     9.0460 ha         1 H09       0.131000
     62 H27         17.5360   -13.8830    14.5520 hc         1 H09       0.060033
     63 H28         19.0970   -13.1050    14.2870 hc         1 H09       0.060033
     64 H29         17.5940   -12.3310    13.7650 hc         1 H09       0.060033
     65 H31         16.2840   -12.3190    10.4530 h1         1 H09       0.055200
     66 H32         16.6830   -10.8510     9.5900 h1         1 H09       0.055200
     67 H33         11.9330   -11.4400     9.6620 ho         1 H09       0.449000
     68 H34         16.7330    -9.0330    12.1710 h1         1 H09       0.065700
     69 H35         21.4680   -12.6830    11.8850 hn         1 H09       0.354000
@<TRIPOS>BOND
     1     1     2 ar  
     2     1    28 ar  
     3     1    29 1   
     4     2     3 ar  
     5     2    24 1   
     6     3    25 ar  
     7     3    37 1   
     8     4     5 1   
     9     4    28 1   
    10     4    30 1   
    11     4    38 1   
    12     5     6 2   
    13     5    36 1   
    14     6     7 1   
    15     6    13 1   
    16     7     8 ar  
    17     7    12 ar  
    18     8     9 ar  
    19     8    39 1   
    20     9    10 ar  
    21     9    40 1   
    22    10    11 ar  
    23    10    41 1   
    24    11    12 ar  
    25    11    42 1   
    26    12    36 1   
    27    13    35 1   
    28    13    43 1   
    29    13    44 1   
    30    14    15 1   
    31    14    31 1   
    32    14    32 1   
    33    14    33 1   
    34    15    34 1   
    35    15    45 1   
    36    15    46 1   
    37    16    35 1   
    38    16    47 1   
    39    16    48 1   
    40    16    49 1   
    41    17    23 1   
    42    17    24 1   
    43    17    50 1   
    44    17    51 1   
    45    18    21 1   
    46    18    22 1   
    47    18    52 1   
    48    18    53 1   
    49    19    20 1   
    50    20    21 1   
    51    20    54 1   
    52    20    55 1   
    53    21    56 1   
    54    21    57 1   
    55    22    23 1   
    56    22    58 1   
    57    23    59 1   
    58    23    60 1   
    59    25    26 ar  
    60    25    61 1   
    61    26    27 1   
    62    26    28 ar  
    63    29    62 1   
    64    29    63 1   
    65    29    64 1   
    66    30    31 1   
    67    30    35 1   
    68    31    65 1   
    69    31    66 1   
    70    34    67 1   
    71    35    68 1   
    72    36    69 1   
@<TRIPOS>SUBSTRUCTURE
     1 H09         1 TEMP              0 ****  ****    0 ROOT
