@<TRIPOS>MOLECULE
H0A
   37    38     1     0     0
SMALL
bcc


@<TRIPOS>ATOM
      1 C4           0.5140    -0.5960     0.1110 ca         1 H0A      -0.115300
      2 C5          -0.9960    -0.6560     0.2230 c3         1 H0A       0.176000
      3 C6          -1.6800    -1.6300    -0.7240 c3         1 H0A      -0.061200
      4 C7          -3.1560    -1.8100    -0.5180 c2         1 H0A      -0.154200
      5 C8          -4.0880    -1.0260     0.0260 c2         1 H0A      -0.172200
      6 C10         -2.7010     0.8720     1.1210 c3         1 H0A       0.107000
      7 C13          1.2300     0.0250     1.1250 ca         1 H0A      -0.069500
      8 O1          -0.6280     1.1980    -1.7720 o          1 H0A      -0.592100
      9 C12         -2.0380     2.8630    -0.8140 c3         1 H0A      -0.177100
     10 N           -1.6040     0.6740     0.1910 n          1 H0A      -0.473800
     11 C9          -4.0360     0.3580     0.6040 c3         1 H0A      -0.065200
     12 C3           1.2370    -1.1640    -0.9340 ca         1 H0A      -0.069500
     13 C2           2.6190    -1.1130    -0.9630 ca         1 H0A      -0.192500
     14 C14          2.6180     0.0970     1.1120 ca         1 H0A      -0.192500
     15 C1           3.3250    -0.4770     0.0580 ca         1 H0A       0.143100
     16 O            4.6690    -0.4690    -0.0530 os         1 H0A      -0.318900
     17 C            5.4230     0.1700     0.9570 c3         1 H0A       0.126700
     18 H1          -1.2020    -1.0220     1.2330 h1         1 H0A       0.049700
     19 H2          -1.5070    -1.3430    -1.7660 hc         1 H0A       0.064700
     20 H3          -1.2050    -2.6080    -0.6070 hc         1 H0A       0.064700
     21 H4          -3.5220    -2.7500    -0.9210 ha         1 H0A       0.114000
     22 H5          -5.0980    -1.4260    -0.0040 ha         1 H0A       0.112000
     23 H6          -2.4410     0.3600     2.0480 h1         1 H0A       0.050200
     24 H7          -2.7950     1.9260     1.3780 h1         1 H0A       0.050200
     25 H8           0.6990     0.4710     1.9580 ha         1 H0A       0.129500
     26 H9          -1.6840     3.4550    -1.6530 hc         1 H0A       0.057700
     27 H10         -3.1230     2.7800    -0.8910 hc         1 H0A       0.057700
     28 H11         -1.8170     3.4010     0.1080 hc         1 H0A       0.057700
     29 H12         -4.4240     1.0440    -0.1590 hc         1 H0A       0.049200
     30 H13         -4.7540     0.4210     1.4250 hc         1 H0A       0.049200
     31 H14          0.7250    -1.6520    -1.7520 ha         1 H0A       0.129500
     32 H15          3.1620    -1.5620    -1.7870 ha         1 H0A       0.138000
     33 H16          3.1220     0.5930     1.9300 ha         1 H0A       0.138000
     34 H17          5.1760     1.2320     1.0420 h1         1 H0A       0.039367
     35 H18          5.2850    -0.3030     1.9330 h1         1 H0A       0.039367
     36 H19          6.4680     0.0770     0.6700 h1         1 H0A       0.039367
     37 C11         -1.3680     1.5080    -0.8500 c          1 H0A       0.670100
@<TRIPOS>BOND
     1     1     2 1   
     2     1     7 ar  
     3     1    12 ar  
     4     2     3 1   
     5     2    10 1   
     6     2    18 1   
     7     3     4 1   
     8     3    19 1   
     9     3    20 1   
    10     4     5 2   
    11     4    21 1   
    12     5    11 1   
    13     5    22 1   
    14     6    10 1   
    15     6    11 1   
    16     6    23 1   
    17     6    24 1   
    18     7    14 ar  
    19     7    25 1   
    20     8    37 2   
    21     9    26 1   
    22     9    27 1   
    23     9    28 1   
    24     9    37 1   
    25    10    37 1   
    26    11    29 1   
    27    11    30 1   
    28    12    13 ar  
    29    12    31 1   
    30    13    15 ar  
    31    13    32 1   
    32    14    15 ar  
    33    14    33 1   
    34    15    16 1   
    35    16    17 1   
    36    17    34 1   
    37    17    35 1   
    38    17    36 1   
@<TRIPOS>SUBSTRUCTURE
     1 H0A         1 TEMP              0 ****  ****    0 ROOT
