@<TRIPOS>MOLECULE
H0A
   37    38     1     0     0
SMALL
No Charge or Current Charge


@<TRIPOS>ATOM
      1 C4           0.5030    -0.5690     0.1070 ca         1 H0A      -0.115300
      2 C5          -1.0310    -0.6060     0.2130 c3         1 H0A       0.176000
      3 C6          -1.7400    -1.6500    -0.6840 c3         1 H0A      -0.061200
      4 C7          -3.1290    -2.0500    -0.2030 c2         1 H0A      -0.204200
      5 C8          -4.1290    -1.2550     0.2210 c2         1 H0A      -0.222200
      6 C10         -2.8950     0.8910     0.9660 c3         1 H0A       0.107000
      7 C13          1.2390    -0.0410     1.1870 ca         1 H0A      -0.051500
      8 O1          -0.5170     1.4300    -1.7400 o          1 H0A      -0.592100
      9 C12         -1.9180     3.0930    -0.7790 c3         1 H0A      -0.177100
     10 N           -1.6870     0.7220     0.1270 n          1 H0A      -0.406800
     11 C9          -4.1480     0.2630     0.3220 c3         1 H0A      -0.065200
     12 C3           1.2010    -1.0420    -1.0270 ca         1 H0A      -0.051500
     13 C2           2.6050    -0.9910    -1.0690 ca         1 H0A      -0.174500
     14 C14          2.6440     0.0100     1.1440 ca         1 H0A      -0.174500
     15 C1           3.3330    -0.4680     0.0100 ca         1 H0A       0.143100
     16 O            4.7100    -0.4440    -0.0900 os         1 H0A      -0.342100
     17 C            5.5460     0.0730     0.9600 c3         1 H0A       0.149900
     18 H1          -1.2060    -0.9680     1.2350 h1         1 H0A       0.049700
     19 H2          -1.7860    -1.2820    -1.7160 hc         1 H0A       0.064700
     20 H3          -1.1190    -2.5540    -0.7060 hc         1 H0A       0.064700
     21 H4          -3.2900    -3.1310    -0.2160 ha         1 H0A       0.164000
     22 H5          -5.0680    -1.7150     0.5350 ha         1 H0A       0.162000
     23 H6          -2.7260     0.4170     1.9420 h1         1 H0A       0.050200
     24 H7          -3.0850     1.9500     1.1730 h1         1 H0A       0.050200
     25 H8           0.7180     0.3320     2.0660 ha         1 H0A       0.111500
     26 H9          -1.5130     3.7610    -1.5470 hc         1 H0A       0.057700
     27 H10         -3.0090     3.0250    -0.8570 hc         1 H0A       0.057700
     28 H11         -1.7670     3.5030     0.2260 hc         1 H0A       0.057700
     29 H12         -4.3050     0.7030    -0.6700 hc         1 H0A       0.049200
     30 H13         -5.0130     0.5660     0.9250 hc         1 H0A       0.049200
     31 H14          0.6660    -1.4400    -1.8850 ha         1 H0A       0.111500
     32 H15          3.1320    -1.3560    -1.9460 ha         1 H0A       0.120000
     33 H16          3.1750     0.4240     1.9960 ha         1 H0A       0.120000
     34 H17          5.3210     1.1300     1.1530 h1         1 H0A       0.039367
     35 H18          5.4030    -0.4940     1.8880 h1         1 H0A       0.039367
     36 H19          6.6030    -0.0020     0.6750 h1         1 H0A       0.039367
     37 C11         -1.3150     1.6860    -0.8490 c          1 H0A       0.603100
@<TRIPOS>BOND
     1     1     2 1   
     2     1     7 ar  
     3     1    12 ar  
     4     2     3 1   
     5     2    10 1   
     6     2    18 1   
     7     3     4 1   
     8     3    19 1   
     9     3    20 1   
    10     4     5 2   
    11     4    21 1   
    12     5    11 1   
    13     5    22 1   
    14     6    10 1   
    15     6    11 1   
    16     6    23 1   
    17     6    24 1   
    18     7    14 ar  
    19     7    25 1   
    20     8    37 2   
    21     9    26 1   
    22     9    27 1   
    23     9    28 1   
    24     9    37 1   
    25    10    37 1   
    26    11    29 1   
    27    11    30 1   
    28    12    13 ar  
    29    12    31 1   
    30    13    15 ar  
    31    13    32 1   
    32    14    15 ar  
    33    14    33 1   
    34    15    16 1   
    35    16    17 1   
    36    17    34 1   
    37    17    35 1   
    38    17    36 1   
@<TRIPOS>SUBSTRUCTURE
     1 H0A         1 TEMP              0 ****  ****    0 ROOT
