@<TRIPOS>MOLECULE
H0B
   44    47     1     0     0
SMALL
No Charge or Current Charge


@<TRIPOS>ATOM
      1 CAH          2.0110    -7.5580    -7.5320 c3         1 H0B       0.079900
      2 NAG          2.1100    -6.9050    -8.8450 na         1 H0B       0.117800
      3 CAT          1.3850    -5.7910    -9.2670 cc         1 H0B      -0.174000
      4 NAF          2.9890    -7.3950    -9.7960 nc         1 H0B      -0.516800
      5 CAE          2.8050    -6.5760   -10.8150 cd         1 H0B       0.213900
      6 CAD          1.8390    -5.5860   -10.5360 cd         1 H0B      -0.058400
      7 NAC          1.4520    -4.5970   -11.4340 ns         1 H0B      -0.364100
      8 CAB          0.5300    -3.5840   -11.2870 c          1 H0B       0.629300
      9 OAA         -0.1050    -3.4400   -10.2490 o          1 H0B      -0.641100
     10 CAI          0.3410    -2.6690   -12.4520 cc         1 H0B      -0.356000
     11 CAJ         -0.5880    -1.6530   -12.2860 cd         1 H0B       0.036600
     12 CAS          1.0310    -2.7240   -13.7520 ca         1 H0B       0.485800
     13 NAR          1.9400    -3.7050   -13.9580 nb         1 H0B      -0.722000
     14 CAQ          2.5880    -3.7780   -15.1410 ca         1 H0B       0.396900
     15 CAP          2.3620    -2.8740   -16.1820 ca         1 H0B      -0.193000
     16 CAO          1.4270    -1.8520   -15.9920 ca         1 H0B       0.003000
     17 CAN          0.7520    -1.7800   -14.7560 ca         1 H0B      -0.224600
     18 CAL         -0.2520    -0.7100   -14.5130 c          1 H0B       0.578600
     19 OAM         -0.5030     0.1250   -15.3730 o          1 H0B      -0.538000
     20 NAK         -0.8900    -0.7070   -13.2610 n          1 H0B      -0.290000
     21 CAU         -1.8890     0.3490   -12.9670 c3         1 H0B       0.145300
     22 CAV         -1.2900     1.5370   -12.2260 ca         1 H0B      -0.112300
     23 CAW         -1.3330     1.5950   -10.8180 ca         1 H0B      -0.082000
     24 CAX         -0.7700     2.6860   -10.1320 ca         1 H0B       0.118000
     25 Cl1         -0.8430     2.7190    -8.3700 cl         1 H0B      -0.172000
     26 CAY         -0.1590     3.7310   -10.8550 ca         1 H0B       0.133000
     27 Cl2          0.5570     5.1160   -10.0280 cl         1 H0B      -0.173000
     28 CAZ         -0.1160     3.6770   -12.2590 ca         1 H0B      -0.100000
     29 CBA         -0.6780     2.5850   -12.9420 ca         1 H0B      -0.066000
     30 H1           1.7010    -8.6020    -7.6650 h1         1 H0B       0.055033
     31 H2           2.9860    -7.5280    -7.0330 h1         1 H0B       0.055033
     32 H3           1.2700    -7.0380    -6.9130 h1         1 H0B       0.055033
     33 H4           0.6550    -5.2810    -8.6520 h4         1 H0B       0.178000
     34 H5           3.3740    -6.7200   -11.7260 h4         1 H0B       0.036100
     35 H6           1.8880    -4.5760   -12.3520 hn         1 H0B       0.368500
     36 H7          -1.1590    -1.5080   -11.3700 h4         1 H0B       0.231000
     37 H8           3.3090    -4.5860   -15.2530 h4         1 H0B       0.026100
     38 H9           2.9060    -2.9690   -17.1170 ha         1 H0B       0.135000
     39 H10          1.2320    -1.1350   -16.7890 ha         1 H0B       0.145000
     40 H11         -2.3610     0.6970   -13.8950 h1         1 H0B       0.076700
     41 H12         -2.6970    -0.0860   -12.3630 h1         1 H0B       0.076700
     42 H13         -1.8010     0.7950   -10.2490 ha         1 H0B       0.133000
     43 H14          0.3550     4.4830   -12.8170 ha         1 H0B       0.137000
     44 H15         -0.6370     2.5540   -14.0290 ha         1 H0B       0.136000
@<TRIPOS>BOND
     1     1     2 1   
     2     1    30 1   
     3     1    31 1   
     4     1    32 1   
     5     2     3 1   
     6     2     4 1   
     7     3     6 2   
     8     3    33 1   
     9     4     5 2   
    10     5     6 1   
    11     5    34 1   
    12     6     7 1   
    13     7     8 1   
    14     7    35 1   
    15     8     9 2   
    16     8    10 1   
    17    10    11 2   
    18    10    12 1   
    19    11    20 1   
    20    11    36 1   
    21    12    13 ar  
    22    12    17 ar  
    23    13    14 ar  
    24    14    15 ar  
    25    14    37 1   
    26    15    16 ar  
    27    15    38 1   
    28    16    17 ar  
    29    16    39 1   
    30    17    18 1   
    31    18    19 2   
    32    18    20 1   
    33    20    21 1   
    34    21    22 1   
    35    21    40 1   
    36    21    41 1   
    37    22    23 ar  
    38    22    29 ar  
    39    23    24 ar  
    40    23    42 1   
    41    24    25 1   
    42    24    26 ar  
    43    26    27 1   
    44    26    28 ar  
    45    28    29 ar  
    46    28    43 1   
    47    29    44 1   
@<TRIPOS>SUBSTRUCTURE
     1 H0B         1 TEMP              0 ****  ****    0 ROOT
