@<TRIPOS>MOLECULE
H0B
   44    47     1     0     0
SMALL
abcg2


@<TRIPOS>ATOM
      1 CAH          1.7060    -7.7580    -7.6100 c3         1 H0B       0.079900
      2 NAG          1.9410    -7.0520    -8.8540 na         1 H0B       0.117800
      3 CAT          1.2940    -5.9460    -9.2960 cc         1 H0B      -0.174000
      4 NAF          2.8420    -7.5100    -9.7370 nc         1 H0B      -0.516800
      5 CAE          2.7780    -6.6740   -10.7730 cd         1 H0B       0.213900
      6 CAD          1.8170    -5.6670   -10.5510 cd         1 H0B      -0.058400
      7 NAC          1.5170    -4.6430   -11.4460 ns         1 H0B      -0.364100
      8 CAB          0.5730    -3.6940   -11.2640 c          1 H0B       0.629300
      9 OAA         -0.1250    -3.6330   -10.2460 o          1 H0B      -0.641100
     10 CAI          0.4110    -2.7070   -12.3760 cc         1 H0B      -0.356000
     11 CAJ         -0.5470    -1.7600   -12.1890 cd         1 H0B       0.036600
     12 CAS          1.1510    -2.6690   -13.6170 ca         1 H0B       0.485800
     13 NAR          2.1160    -3.5790   -13.8710 nb         1 H0B      -0.722000
     14 CAQ          2.7720    -3.5260   -15.0190 ca         1 H0B       0.396900
     15 CAP          2.5260    -2.5660   -16.0040 ca         1 H0B      -0.193000
     16 CAO          1.5480    -1.6260   -15.7640 ca         1 H0B       0.003000
     17 CAN          0.8410    -1.6640   -14.5590 ca         1 H0B      -0.224600
     18 CAL         -0.1970    -0.6640   -14.3090 c          1 H0B       0.578600
     19 OAM         -0.4980     0.2290   -15.0950 o          1 H0B      -0.538000
     20 NAK         -0.8490    -0.7840   -13.0850 n          1 H0B      -0.290000
     21 CAU         -1.8870     0.2120   -12.7550 c3         1 H0B       0.145300
     22 CAV         -1.2980     1.5060   -12.2450 ca         1 H0B      -0.112300
     23 CAW         -0.7570     1.5670   -10.9640 ca         1 H0B      -0.082000
     24 CAX         -0.2040     2.7480   -10.4880 ca         1 H0B       0.118000
     25 CL1          0.4610     2.7750    -8.8810 cl         1 H0B      -0.172000
     26 CAY         -0.1960     3.8880   -11.2920 ca         1 H0B       0.133000
     27 CL2          0.4820     5.3860   -10.7270 cl         1 H0B      -0.173000
     28 CAZ         -0.7410     3.8330   -12.5690 ca         1 H0B      -0.100000
     29 CBA         -1.2860     2.6480   -13.0410 ca         1 H0B      -0.066000
     30 H1           1.2240    -8.7180    -7.8030 h1         1 H0B       0.055033
     31 H2           2.6530    -7.9250    -7.0980 h1         1 H0B       0.055033
     32 H3           1.0600    -7.1470    -6.9850 h1         1 H0B       0.055033
     33 H4           0.5420    -5.4500    -8.7130 h4         1 H0B       0.178000
     34 H5           3.4130    -6.8110   -11.6340 h4         1 H0B       0.036100
     35 H6           2.0310    -4.5930   -12.3290 hn         1 H0B       0.368500
     36 H7          -1.1260    -1.7580   -11.2780 h4         1 H0B       0.231000
     37 H8           3.5340    -4.2820   -15.1720 h4         1 H0B       0.026100
     38 H9           3.0930    -2.5710   -16.9240 ha         1 H0B       0.135000
     39 H10          1.3120    -0.8570   -16.4870 ha         1 H0B       0.145000
     40 H11         -2.4720     0.3910   -13.6530 h1         1 H0B       0.076700
     41 H12         -2.5300    -0.2410   -12.0030 h1         1 H0B       0.076700
     42 H13         -0.7650     0.6980   -10.3190 ha         1 H0B       0.133000
     43 H14         -0.7340     4.7200   -13.1860 ha         1 H0B       0.137000
     44 H15         -1.7020     2.6120   -14.0380 ha         1 H0B       0.136000
@<TRIPOS>BOND
     1     1     2 1   
     2     1    30 1   
     3     1    31 1   
     4     1    32 1   
     5     2     3 1   
     6     2     4 1   
     7     3     6 2   
     8     3    33 1   
     9     4     5 2   
    10     5     6 1   
    11     5    34 1   
    12     6     7 1   
    13     7     8 1   
    14     7    35 1   
    15     8     9 2   
    16     8    10 1   
    17    10    11 2   
    18    10    12 1   
    19    11    20 1   
    20    11    36 1   
    21    12    13 ar  
    22    12    17 ar  
    23    13    14 ar  
    24    14    15 ar  
    25    14    37 1   
    26    15    16 ar  
    27    15    38 1   
    28    16    17 ar  
    29    16    39 1   
    30    17    18 1   
    31    18    19 2   
    32    18    20 1   
    33    20    21 1   
    34    21    22 1   
    35    21    40 1   
    36    21    41 1   
    37    22    23 ar  
    38    22    29 ar  
    39    23    24 ar  
    40    23    42 1   
    41    24    25 1   
    42    24    26 ar  
    43    26    27 1   
    44    26    28 ar  
    45    28    29 ar  
    46    28    43 1   
    47    29    44 1   
@<TRIPOS>SUBSTRUCTURE
     1 H0B         1 TEMP              0 ****  ****    0 ROOT
