@<TRIPOS>MOLECULE
H0C
  109   117     1     0     0
SMALL
abcg2


@<TRIPOS>ATOM
      1 C1          -1.0060   -24.1910    48.0250 c6         1 H0C       0.193300
      2 C2          -2.1440   -23.1820    47.9970 c6         1 H0C      -0.068400
      3 O1          -2.2970   -26.3980    42.9220 o          1 H0C      -0.462000
      4 C3          -2.0300   -22.1240    46.9110 c6         1 H0C       0.193300
      5 O2          -2.3650   -22.7150    45.6660 os         1 H0C      -0.445000
      6 C4          -2.3410   -26.1550    40.5540 ca         1 H0C      -0.094600
      7 C5          -1.0330   -26.2320    40.0590 ca         1 H0C       0.006500
      8 C6          -0.8270   -26.6830    38.7170 ca         1 H0C      -0.040000
      9 C7          -4.3350   -27.3520    37.6300 ca         1 H0C      -0.099000
     10 C8          -3.2200   -26.9720    38.4310 ca         1 H0C      -0.040000
     11 C9          -1.9220   -27.0430    37.9380 ca         1 H0C      -0.072000
     12 C10          0.4990   -26.7530    38.2000 ca         1 H0C      -0.099000
     13 C11          0.3960   -23.4990    48.1010 c6         1 H0C      -0.089000
     14 C12          0.6170   -23.5680    50.7520 c6         1 H0C       0.172300
     15 C13          0.6470   -22.6750    51.9890 c6         1 H0C      -0.116400
     16 C14          1.4920   -24.5790    48.1050 c3         1 H0C       0.151600
     17 C16          3.9930   -19.8890    55.8770 c          1 H0C       0.649300
     18 C17          2.7800   -20.5260    55.3670 ce         1 H0C      -0.318200
     19 C18          3.8360   -19.4240    53.6620 c5         1 H0C       0.174800
     20 C19          2.6620   -20.2640    54.0630 c2         1 H0C      -0.079400
     21 C20          1.8600   -21.7490    52.0860 c5         1 H0C      -0.022000
     22 C21          3.1050   -22.5800    52.3890 c3         1 H0C      -0.075100
     23 C22          1.5320   -20.6850    53.1850 c5         1 H0C      -0.009500
     24 C23          0.8810   -19.4980    52.4270 c5         1 H0C      -0.069400
     25 C24          0.8230   -19.8980    50.9500 c5         1 H0C      -0.111400
     26 C25          1.9350   -20.9380    50.7820 c5         1 H0C       0.190000
     27 C26          0.5620   -22.7100    49.4690 c6         1 H0C      -0.037700
     28 C27          1.8310   -21.8110    49.5100 c6         1 H0C      -0.077700
     29 C28          2.0010   -20.9320    48.2740 c6         1 H0C      -0.073400
     30 C29          1.8500   -21.7170    46.9920 c6         1 H0C      -0.108400
     31 C30          0.5350   -22.4890    46.9030 c6         1 H0C       0.215000
     32 O3          -1.1690   -25.0570    46.9160 oh         1 H0C      -0.642000
     33 C31         -0.6390   -21.5000    46.9090 c6         1 H0C      -0.093400
     34 C32         -2.8580   -21.8800    44.6820 c6         1 H0C       0.350300
     35 C33         -2.5110   -22.5400    43.3420 c6         1 H0C       0.144300
     36 C34         -3.2690   -23.8550    43.2770 c6         1 H0C       0.174300
     37 C35         -3.4420   -26.5120    39.7680 ca         1 H0C       0.006500
     38 C36         -4.7860   -26.4600    40.2450 ca         1 H0C      -0.095500
     39 C37         -5.8240   -26.8380    39.4500 ca         1 H0C      -0.106000
     40 C38         -5.6000   -27.2890    38.1220 ca         1 H0C      -0.106500
     41 C39         -4.7640   -23.6330    43.4330 c6         1 H0C       0.134300
     42 C40          1.5640   -26.3930    38.9640 ca         1 H0C      -0.106500
     43 C41          1.3630   -25.9390    40.2930 ca         1 H0C      -0.106000
     44 C42          0.1130   -25.8610    40.8250 ca         1 H0C      -0.095500
     45 C43         -5.0310   -22.8500    44.7310 c6         1 H0C       0.144300
     46 C44         -6.4800   -22.4220    44.8510 c3         1 H0C      -0.090100
     47 O4          -0.5010   -24.4250    50.8610 oh         1 H0C      -0.660000
     48 O5           3.1930   -20.2820    50.8050 oh         1 H0C      -0.666000
     49 O6           1.5890   -25.2450    46.8490 oh         1 H0C      -0.686000
     50 O7          -2.8970   -21.7440    42.2550 oh         1 H0C      -0.695000
     51 O8           4.5870   -19.2450    54.8570 os         1 H0C      -0.425100
     52 O10         -3.0150   -24.4730    42.0100 os         1 H0C      -0.423100
     53 O11         -5.3770   -24.9010    43.4850 oh         1 H0C      -0.714000
     54 O12          0.5030   -23.1200    45.6370 oh         1 H0C      -0.649000
     55 O13         -4.2390   -21.6720    44.7940 os         1 H0C      -0.474000
     56 H1          -1.1160   -24.7790    48.9350 h1         1 H0C       0.054700
     57 H2          -2.1860   -22.6720    48.9610 hc         1 H0C       0.058200
     58 H3          -3.0970   -23.7110    47.9020 hc         1 H0C       0.058200
     59 H4          -2.7560   -21.3310    47.1350 h1         1 H0C       0.035700
     60 H5          -4.1510   -27.6960    36.6190 ha         1 H0C       0.112000
     61 H6          -1.7580   -27.3870    36.9230 ha         1 H0C       0.114000
     62 H7           0.6400   -27.0980    37.1830 ha         1 H0C       0.112000
     63 H8           1.5390   -24.1650    50.7250 h1         1 H0C       0.030700
     64 H9          -0.2840   -22.1010    52.0100 hc         1 H0C       0.052200
     65 H10          0.6300   -23.3090    52.8830 hc         1 H0C       0.052200
     66 H11          1.2570   -25.3130    48.8850 h1         1 H0C       0.030700
     67 H12          2.4610   -24.1430    48.3620 h1         1 H0C       0.030700
     68 H13          2.1040   -21.0970    55.9860 ha         1 H0C       0.220000
     69 H14          4.4650   -19.9020    52.9120 h1         1 H0C       0.086200
     70 H15          3.5390   -18.4460    53.2760 h1         1 H0C       0.086200
     71 H16          2.9840   -23.1000    53.3420 hc         1 H0C       0.042033
     72 H17          3.2710   -23.3430    51.6290 hc         1 H0C       0.042033
     73 H18          4.0150   -21.9890    52.4500 hc         1 H0C       0.042033
     74 H19          0.7980   -21.1340    53.8580 hc         1 H0C       0.060700
     75 H20          1.4630   -18.5840    52.5480 hc         1 H0C       0.050700
     76 H21         -0.1090   -19.2810    52.8260 hc         1 H0C       0.050700
     77 H22          0.9600   -19.0390    50.2890 hc         1 H0C       0.054200
     78 H23         -0.1520   -20.3170    50.6970 hc         1 H0C       0.054200
     79 H24         -0.3100   -22.0570    49.5690 hc         1 H0C       0.064700
     80 H25          2.7030   -22.4780    49.5370 hc         1 H0C       0.059700
     81 H26          2.9920   -20.4750    48.2870 hc         1 H0C       0.041200
     82 H27          1.2880   -20.1030    48.2870 hc         1 H0C       0.041200
     83 H28          2.6880   -22.4170    46.8890 hc         1 H0C       0.051200
     84 H29          1.9120   -21.0430    46.1330 hc         1 H0C       0.051200
     85 H30         -0.3490   -25.5450    46.7820 ho         1 H0C       0.456000
     86 H31         -0.5220   -20.8210    46.0570 hc         1 H0C       0.045700
     87 H32         -0.5860   -20.8640    47.7940 hc         1 H0C       0.045700
     88 H33         -2.4130   -20.8760    44.7300 h2         1 H0C       0.060700
     89 H34         -1.4320   -22.7430    43.3340 h1         1 H0C       0.071700
     90 H35         -2.9120   -24.5010    44.0810 h1         1 H0C       0.117700
     91 H36         -4.9950   -26.1210    41.2520 ha         1 H0C       0.128500
     92 H37         -6.8350   -26.7940    39.8320 ha         1 H0C       0.111500
     93 H38         -6.4410   -27.5830    37.5090 ha         1 H0C       0.112500
     94 H39         -5.1370   -23.0500    42.5820 h1         1 H0C       0.064700
     95 H40          2.5680   -26.4490    38.5640 ha         1 H0C       0.112500
     96 H41          2.2190   -25.6500    40.8910 ha         1 H0C       0.111500
     97 H42          0.0000   -25.5080    41.8420 ha         1 H0C       0.128500
     98 H43         -4.7890   -23.5150    45.5710 h1         1 H0C       0.063700
     99 H44         -6.6470   -21.8800    45.7820 hc         1 H0C       0.042700
    100 H45         -6.7740   -21.7800    44.0190 hc         1 H0C       0.042700
    101 H46         -7.1380   -23.2910    44.8600 hc         1 H0C       0.042700
    102 H47         -0.3900   -24.9570    51.6570 ho         1 H0C       0.448000
    103 H48          3.1610   -19.5100    50.2320 ho         1 H0C       0.446000
    104 H49          2.3060   -25.8860    46.8920 ho         1 H0C       0.459000
    105 H50         -2.3470   -20.9540    42.2410 ho         1 H0C       0.501000
    106 H51         -6.2870   -24.8230    43.1870 ho         1 H0C       0.503000
    107 H52          1.0850   -23.8900    45.6790 ho         1 H0C       0.465000
    108 O9           4.4560   -19.8790    56.9890 o          1 H0C      -0.485000
    109 C15         -2.5500   -25.7120    41.9660 c          1 H0C       0.609700
@<TRIPOS>BOND
     1     1     2 1   
     2     1    13 1   
     3     1    32 1   
     4     1    56 1   
     5     2     4 1   
     6     2    57 1   
     7     2    58 1   
     8     3   109 2   
     9     4     5 1   
    10     4    33 1   
    11     4    59 1   
    12     5    34 1   
    13     6     7 ar  
    14     6    37 ar  
    15     6   109 1   
    16     7     8 ar  
    17     7    44 ar  
    18     8    11 ar  
    19     8    12 ar  
    20     9    10 ar  
    21     9    40 ar  
    22     9    60 1   
    23    10    11 ar  
    24    10    37 ar  
    25    11    61 1   
    26    12    42 ar  
    27    12    62 1   
    28    13    16 1   
    29    13    27 1   
    30    13    31 1   
    31    14    15 1   
    32    14    27 1   
    33    14    47 1   
    34    14    63 1   
    35    15    21 1   
    36    15    64 1   
    37    15    65 1   
    38    16    49 1   
    39    16    66 1   
    40    16    67 1   
    41    17    18 1   
    42    17    51 1   
    43    17   108 2   
    44    18    20 2   
    45    18    68 1   
    46    19    20 1   
    47    19    51 1   
    48    19    69 1   
    49    19    70 1   
    50    20    23 1   
    51    21    22 1   
    52    21    23 1   
    53    21    26 1   
    54    22    71 1   
    55    22    72 1   
    56    22    73 1   
    57    23    24 1   
    58    23    74 1   
    59    24    25 1   
    60    24    75 1   
    61    24    76 1   
    62    25    26 1   
    63    25    77 1   
    64    25    78 1   
    65    26    28 1   
    66    26    48 1   
    67    27    28 1   
    68    27    79 1   
    69    28    29 1   
    70    28    80 1   
    71    29    30 1   
    72    29    81 1   
    73    29    82 1   
    74    30    31 1   
    75    30    83 1   
    76    30    84 1   
    77    31    33 1   
    78    31    54 1   
    79    32    85 1   
    80    33    86 1   
    81    33    87 1   
    82    34    35 1   
    83    34    55 1   
    84    34    88 1   
    85    35    36 1   
    86    35    50 1   
    87    35    89 1   
    88    36    41 1   
    89    36    52 1   
    90    36    90 1   
    91    37    38 ar  
    92    38    39 ar  
    93    38    91 1   
    94    39    40 ar  
    95    39    92 1   
    96    40    93 1   
    97    41    45 1   
    98    41    53 1   
    99    41    94 1   
   100    42    43 ar  
   101    42    95 1   
   102    43    44 ar  
   103    43    96 1   
   104    44    97 1   
   105    45    46 1   
   106    45    55 1   
   107    45    98 1   
   108    46    99 1   
   109    46   100 1   
   110    46   101 1   
   111    47   102 1   
   112    48   103 1   
   113    49   104 1   
   114    50   105 1   
   115    52   109 1   
   116    53   106 1   
   117    54   107 1   
@<TRIPOS>SUBSTRUCTURE
     1 H0C         1 TEMP              0 ****  ****    0 ROOT
