@<TRIPOS>MOLECULE
H0C
  109   117     1     0     0
SMALL
No Charge or Current Charge


@<TRIPOS>ATOM
      1 C1          -0.5970   -24.1500    48.0000 c6         1 H0C       0.193300
      2 C2          -1.9260   -23.3450    47.9090 c6         1 H0C      -0.068400
      3 O1          -3.1100   -26.7480    42.5360 o          1 H0C      -0.462000
      4 C3          -1.9090   -22.2540    46.8090 c6         1 H0C       0.193300
      5 O2          -2.0340   -22.8610    45.5040 os         1 H0C      -0.445000
      6 C4          -2.7530   -26.5020    40.1780 ca         1 H0C      -0.094600
      7 C5          -1.4780   -26.4520    39.5550 ca         1 H0C       0.006500
      8 C6          -1.3280   -26.9200    38.2280 ca         1 H0C      -0.040000
      9 C7          -4.7880   -28.0110    37.4230 ca         1 H0C      -0.099000
     10 C8          -3.6950   -27.4910    38.1420 ca         1 H0C      -0.040000
     11 C9          -2.4320   -27.4350    37.5310 ca         1 H0C      -0.072000
     12 C10         -0.0700   -26.8790    37.5950 ca         1 H0C      -0.099000
     13 C11          0.6820   -23.2280    48.2030 c6         1 H0C      -0.089000
     14 C12          0.5820   -23.4120    50.9100 c6         1 H0C       0.172300
     15 C13          0.6220   -22.6270    52.2400 c6         1 H0C      -0.116400
     16 C14          1.9710   -24.1580    48.1540 c3         1 H0C       0.151600
     17 C16          4.0620   -20.3760    56.3830 c          1 H0C       0.649300
     18 C17          2.8360   -20.8860    55.7730 ce         1 H0C      -0.318200
     19 C18          3.8460   -19.4360    54.2610 c5         1 H0C       0.174800
     20 C19          2.6800   -20.3660    54.5580 c2         1 H0C      -0.079400
     21 C20          1.8210   -21.6400    52.4150 c5         1 H0C      -0.022000
     22 C21          3.0960   -22.5210    52.6360 c3         1 H0C      -0.075100
     23 C22          1.4940   -20.6530    53.6180 c5         1 H0C      -0.009500
     24 C23          0.9130   -19.3470    52.9680 c5         1 H0C      -0.069400
     25 C24          0.7220   -19.7090    51.4660 c5         1 H0C      -0.111400
     26 C25          1.9290   -20.6610    51.1860 c5         1 H0C       0.190000
     27 C26          0.6370   -22.4700    49.6400 c6         1 H0C      -0.037700
     28 C27          1.8440   -21.4520    49.7840 c6         1 H0C      -0.077700
     29 C28          1.8710   -20.4440    48.6040 c6         1 H0C      -0.073400
     30 C29          1.8860   -21.1420    47.2350 c6         1 H0C      -0.108400
     31 C30          0.7070   -22.1330    47.0360 c6         1 H0C       0.215000
     32 O3          -0.4840   -25.0280    46.8750 oh         1 H0C      -0.642000
     33 C31         -0.6490   -21.3490    46.9460 c6         1 H0C      -0.093400
     34 C32         -2.3960   -21.9880    44.4160 c6         1 H0C       0.350300
     35 C33         -2.1190   -22.6870    43.0410 c6         1 H0C       0.144300
     36 C34         -3.0340   -23.9480    42.9360 c6         1 H0C       0.174300
     37 C35         -3.8650   -27.0260    39.4680 ca         1 H0C       0.006500
     38 C36         -5.1550   -27.0860    40.0480 ca         1 H0C      -0.095500
     39 C37         -6.2420   -27.6060    39.3250 ca         1 H0C      -0.106000
     40 C38         -6.0590   -28.0700    38.0140 ca         1 H0C      -0.106500
     41 C39         -4.5360   -23.5380    43.1150 c6         1 H0C       0.134300
     42 C40          1.0480   -26.3770    38.2770 ca         1 H0C      -0.106500
     43 C41          0.9140   -25.9180    39.5950 ca         1 H0C      -0.106000
     44 C42         -0.3380   -25.9560    40.2330 ca         1 H0C      -0.095500
     45 C43         -4.7060   -22.7660    44.4640 c6         1 H0C       0.144300
     46 C44         -6.1290   -22.1820    44.6620 c3         1 H0C      -0.090100
     47 O4          -1.1810   -24.4550    51.0550 oh         1 H0C      -0.660000
     48 O5           3.1520   -19.8710    51.2810 oh         1 H0C      -0.666000
     49 O6           2.1640   -24.8290    46.8960 oh         1 H0C      -0.686000
     50 O7          -2.3340   -21.7930    41.9120 oh         1 H0C      -0.695000
     51 O8           4.6470   -19.5120    55.4870 os         1 H0C      -0.425100
     52 O10         -2.8100   -24.6390    41.6780 os         1 H0C      -0.423100
     53 O11         -5.4210   -24.6810    43.0440 oh         1 H0C      -0.714000
     54 O12          0.9570   -22.7360    45.7660 oh         1 H0C      -0.649000
     55 O13         -3.7960   -21.6410    44.5300 os         1 H0C      -0.474000
     56 H1          -0.6610   -24.8160    48.8600 h1         1 H0C       0.054700
     57 H2          -2.1450   -22.8760    48.8760 hc         1 H0C       0.058200
     58 H3          -2.7620   -24.0330    47.7270 hc         1 H0C       0.058200
     59 H4          -2.7990   -21.6250    46.9630 h1         1 H0C       0.035700
     60 H5          -4.6550   -28.3700    36.4050 ha         1 H0C       0.112000
     61 H6          -2.3090   -27.7940    36.5120 ha         1 H0C       0.114000
     62 H7           0.0420   -27.2380    36.5740 ha         1 H0C       0.112000
     63 H8           1.4300   -24.1090    50.8890 h1         1 H0C       0.030700
     64 H9          -0.3350   -22.1000    52.3480 hc         1 H0C       0.052200
     65 H10          0.6260   -23.3490    53.0690 hc         1 H0C       0.052200
     66 H11          1.8870   -24.9110    48.9480 h1         1 H0C       0.030700
     67 H12          2.8700   -23.5710    48.3700 h1         1 H0C       0.030700
     68 H13          2.1810   -21.5850    56.2870 ha         1 H0C       0.220000
     69 H14          4.4610   -19.7720    53.4170 h1         1 H0C       0.086200
     70 H15          3.5410   -18.3960    54.0920 h1         1 H0C       0.086200
     71 H16          3.0020   -23.1370    53.5380 hc         1 H0C       0.042033
     72 H17          3.2810   -23.1970    51.7950 hc         1 H0C       0.042033
     73 H18          4.0030   -21.9190    52.7510 hc         1 H0C       0.042033
     74 H19          0.7090   -21.1000    54.2400 hc         1 H0C       0.060700
     75 H20          1.5830   -18.4880    53.0710 hc         1 H0C       0.050700
     76 H21         -0.0330   -19.0470    53.4330 hc         1 H0C       0.050700
     77 H22          0.7440   -18.8110    50.8390 hc         1 H0C       0.054200
     78 H23         -0.2500   -20.1770    51.2820 hc         1 H0C       0.054200
     79 H24         -0.2810   -21.8730    49.6850 hc         1 H0C       0.064700
     80 H25          2.7760   -22.0260    49.7400 hc         1 H0C       0.059700
     81 H26          2.7670   -19.8120    48.6680 hc         1 H0C       0.041200
     82 H27          1.0200   -19.7540    48.6640 hc         1 H0C       0.041200
     83 H28          2.8450   -21.6620    47.1100 hc         1 H0C       0.051200
     84 H29          1.8650   -20.3780    46.4450 hc         1 H0C       0.051200
     85 H30          0.4930   -25.1380    46.7520 ho         1 H0C       0.456000
     86 H31         -0.6030   -20.6280    46.1220 hc         1 H0C       0.045700
     87 H32         -0.7960   -20.7290    47.8370 hc         1 H0C       0.045700
     88 H33         -1.7920   -21.0710    44.4580 h2         1 H0C       0.060700
     89 H34         -1.0740   -23.0310    43.0490 h1         1 H0C       0.071700
     90 H35         -2.7550   -24.6160    43.7640 h1         1 H0C       0.117700
     91 H36         -5.3360   -26.7340    41.0600 ha         1 H0C       0.128500
     92 H37         -7.2280   -27.6490    39.7830 ha         1 H0C       0.111500
     93 H38         -6.9020   -28.4720    37.4560 ha         1 H0C       0.112500
     94 H39         -4.7830   -22.8400    42.3000 h1         1 H0C       0.064700
     95 H40          2.0180   -26.3480    37.7850 ha         1 H0C       0.112500
     96 H41          1.7820   -25.5330    40.1260 ha         1 H0C       0.111500
     97 H42         -0.4010   -25.5970    41.2560 ha         1 H0C       0.128500
     98 H43         -4.4960   -23.4460    45.3040 h1         1 H0C       0.063700
     99 H44         -6.1860   -21.5970    45.5870 hc         1 H0C       0.042700
    100 H45         -6.4100   -21.5250    43.8300 hc         1 H0C       0.042700
    101 H46         -6.8810   -22.9770    44.7340 hc         1 H0C       0.042700
    102 H47         -1.1240   -24.9910    51.8780 ho         1 H0C       0.448000
    103 H48          3.1110   -19.2060    50.5640 ho         1 H0C       0.446000
    104 H49          3.0000   -25.3500    46.9720 ho         1 H0C       0.459000
    105 H50         -1.6060   -21.1300    41.9180 ho         1 H0C       0.501000
    106 H51         -6.3340   -24.3350    42.9200 ho         1 H0C       0.503000
    107 H52          1.4850   -23.5440    45.9870 ho         1 H0C       0.465000
    108 O9           4.4990   -20.6550    57.4880 o          1 H0C      -0.485000
    109 C15         -2.9260   -26.0020    41.5830 c          1 H0C       0.609700
@<TRIPOS>BOND
     1     1     2 1   
     2     1    13 1   
     3     1    32 1   
     4     1    56 1   
     5     2     4 1   
     6     2    57 1   
     7     2    58 1   
     8     3   109 2   
     9     4     5 1   
    10     4    33 1   
    11     4    59 1   
    12     5    34 1   
    13     6     7 ar  
    14     6    37 ar  
    15     6   109 1   
    16     7     8 ar  
    17     7    44 ar  
    18     8    11 ar  
    19     8    12 ar  
    20     9    10 ar  
    21     9    40 ar  
    22     9    60 1   
    23    10    11 ar  
    24    10    37 ar  
    25    11    61 1   
    26    12    42 ar  
    27    12    62 1   
    28    13    16 1   
    29    13    27 1   
    30    13    31 1   
    31    14    15 1   
    32    14    27 1   
    33    14    47 1   
    34    14    63 1   
    35    15    21 1   
    36    15    64 1   
    37    15    65 1   
    38    16    49 1   
    39    16    66 1   
    40    16    67 1   
    41    17    18 1   
    42    17    51 1   
    43    17   108 2   
    44    18    20 2   
    45    18    68 1   
    46    19    20 1   
    47    19    51 1   
    48    19    69 1   
    49    19    70 1   
    50    20    23 1   
    51    21    22 1   
    52    21    23 1   
    53    21    26 1   
    54    22    71 1   
    55    22    72 1   
    56    22    73 1   
    57    23    24 1   
    58    23    74 1   
    59    24    25 1   
    60    24    75 1   
    61    24    76 1   
    62    25    26 1   
    63    25    77 1   
    64    25    78 1   
    65    26    28 1   
    66    26    48 1   
    67    27    28 1   
    68    27    79 1   
    69    28    29 1   
    70    28    80 1   
    71    29    30 1   
    72    29    81 1   
    73    29    82 1   
    74    30    31 1   
    75    30    83 1   
    76    30    84 1   
    77    31    33 1   
    78    31    54 1   
    79    32    85 1   
    80    33    86 1   
    81    33    87 1   
    82    34    35 1   
    83    34    55 1   
    84    34    88 1   
    85    35    36 1   
    86    35    50 1   
    87    35    89 1   
    88    36    41 1   
    89    36    52 1   
    90    36    90 1   
    91    37    38 ar  
    92    38    39 ar  
    93    38    91 1   
    94    39    40 ar  
    95    39    92 1   
    96    40    93 1   
    97    41    45 1   
    98    41    53 1   
    99    41    94 1   
   100    42    43 ar  
   101    42    95 1   
   102    43    44 ar  
   103    43    96 1   
   104    44    97 1   
   105    45    46 1   
   106    45    55 1   
   107    45    98 1   
   108    46    99 1   
   109    46   100 1   
   110    46   101 1   
   111    47   102 1   
   112    48   103 1   
   113    49   104 1   
   114    50   105 1   
   115    52   109 1   
   116    53   106 1   
   117    54   107 1   
@<TRIPOS>SUBSTRUCTURE
     1 H0C         1 TEMP              0 ****  ****    0 ROOT
