@<TRIPOS>MOLECULE
H0D
   31    31     1     0     0
SMALL
No Charge or Current Charge


@<TRIPOS>ATOM
      1 N1           2.4400     0.2030     0.0300 ns         1 H0D      -0.520900
      2 C4           4.7140     0.6680    -0.8580 c3         1 H0D       0.143600
      3 C5           1.1980    -0.2270    -0.3710 c          1 H0D       0.664100
      4 C6          -1.2340     0.4990     0.0170 ca         1 H0D       0.001000
      5 C7          -1.9110    -0.4980    -0.7220 ca         1 H0D      -0.143500
      6 C8          -3.3160    -0.4910    -0.8030 ca         1 H0D      -0.075500
      7 C10         -3.3930     1.4990     0.5880 ca         1 H0D      -0.075500
      8 C1           3.3900    -2.4310     1.2580 c3         1 H0D      -0.089100
      9 C2           4.2980    -1.2660     0.8070 c3         1 H0D      -0.089400
     10 C3           3.7180    -0.4140    -0.3520 c3         1 H0D       0.127700
     11 O1           4.9090     1.7030     0.1250 oh         1 H0D      -0.670000
     12 O2           1.0440    -1.1950    -1.1020 o          1 H0D      -0.627100
     13 N2           0.1810     0.5590     0.1460 ns         1 H0D      -0.167000
     14 C9          -4.0550     0.5060    -0.1490 ca         1 H0D       0.089000
     15 C11         -1.9890     1.4940     0.6690 ca         1 H0D      -0.143500
     16 Cl1         -5.8110     0.5110    -0.2520 cl         1 H0D      -0.206000
     17 H1           2.4790     1.0270     0.6150 hn         1 H0D       0.318500
     18 H2           5.6710     0.1880    -1.1050 h1         1 H0D       0.031200
     19 H3           4.3170     1.1030    -1.7840 h1         1 H0D       0.031200
     20 H4          -1.3720    -1.2850    -1.2390 ha         1 H0D       0.129000
     21 H5          -3.8310    -1.2610    -1.3730 ha         1 H0D       0.128500
     22 H6          -3.9660     2.2720     1.0950 ha         1 H0D       0.128500
     23 H7           3.8910    -3.0260     2.0310 hc         1 H0D       0.036033
     24 H8           2.4480    -2.0580     1.6770 hc         1 H0D       0.036033
     25 H9           3.1590    -3.0920     0.4140 hc         1 H0D       0.036033
     26 H10          4.5010    -0.6200     1.6700 hc         1 H0D       0.049700
     27 H11          5.2630    -1.6810     0.4920 hc         1 H0D       0.049700
     28 H12          3.5410    -1.0920    -1.1990 h1         1 H0D       0.086700
     29 H13          5.5460     2.3470    -0.2580 ho         1 H0D       0.447000
     30 H14          0.5010     1.3200     0.7290 hn         1 H0D       0.145000
     31 H15         -1.4860     2.2690     1.2440 ha         1 H0D       0.129000
@<TRIPOS>BOND
     1     1     3 1   
     2     1    10 1   
     3     1    17 1   
     4     2    10 1   
     5     2    11 1   
     6     2    18 1   
     7     2    19 1   
     8     3    12 2   
     9     3    13 1   
    10     4     5 ar  
    11     4    13 1   
    12     4    15 ar  
    13     5     6 ar  
    14     5    20 1   
    15     6    14 ar  
    16     6    21 1   
    17     7    14 ar  
    18     7    15 ar  
    19     7    22 1   
    20     8     9 1   
    21     8    23 1   
    22     8    24 1   
    23     8    25 1   
    24     9    10 1   
    25     9    26 1   
    26     9    27 1   
    27    10    28 1   
    28    11    29 1   
    29    13    30 1   
    30    14    16 1   
    31    15    31 1   
@<TRIPOS>SUBSTRUCTURE
     1 H0D         1 TEMP              0 ****  ****    0 ROOT
