@<TRIPOS>MOLECULE
H0D
   31    31     1     0     0
SMALL
bcc


@<TRIPOS>ATOM
      1 N1           2.4210     0.1980     0.0600 ns         1 H0D      -0.587900
      2 C4           4.5430     0.3670    -1.1290 c3         1 H0D       0.120400
      3 C5           1.1770    -0.1410    -0.3440 c          1 H0D       0.798100
      4 C6          -1.1780     0.5420     0.0180 ca         1 H0D       0.093600
      5 C7          -1.7640     0.0300    -1.1420 ca         1 H0D      -0.161500
      6 C8          -3.1450    -0.0100    -1.2680 ca         1 H0D      -0.093500
      7 C10         -3.3900     0.9930     0.9020 ca         1 H0D      -0.093500
      8 C1           3.4490    -2.1380     1.6510 c3         1 H0D      -0.089100
      9 C2           4.3070    -1.1140     0.9220 c3         1 H0D      -0.089400
     10 C3           3.6210    -0.5240    -0.3120 c3         1 H0D       0.127700
     11 O1           4.9340     1.4670    -0.3390 oh         1 H0D      -0.607800
     12 O2           0.9360    -1.0500    -1.1230 o          1 H0D      -0.627100
     13 N2           0.1950     0.6510     0.2130 ns         1 H0D      -0.493100
     14 C9          -3.9540     0.4680    -0.2500 ca         1 H0D      -0.002600
     15 C11         -2.0140     1.0220     1.0300 ca         1 H0D      -0.161500
     16 CL1         -5.6790     0.4140    -0.4200 cl         1 H0D      -0.114400
     17 H1           2.5440     0.9890     0.6730 hn         1 H0D       0.318500
     18 H2           5.4070    -0.2270    -1.4550 h1         1 H0D       0.031200
     19 H3           4.0110     0.6890    -2.0330 h1         1 H0D       0.031200
     20 H4          -1.1610    -0.3330    -1.9580 ha         1 H0D       0.147000
     21 H5          -3.5820    -0.4100    -2.1730 ha         1 H0D       0.146500
     22 H6          -4.0130     1.3700     1.7020 ha         1 H0D       0.146500
     23 H7           3.9620    -2.5140     2.5360 hc         1 H0D       0.036033
     24 H8           2.5030    -1.7070     1.9780 hc         1 H0D       0.036033
     25 H9           3.2220    -2.9930     1.0120 hc         1 H0D       0.036033
     26 H10          4.5870    -0.3090     1.6070 hc         1 H0D       0.049700
     27 H11          5.2420    -1.5820     0.6020 hc         1 H0D       0.049700
     28 H12          3.3160    -1.3440    -0.9640 h1         1 H0D       0.086700
     29 H13          5.4620     2.0590    -0.8810 ho         1 H0D       0.408000
     30 H14          0.4670     1.2420     0.9840 hn         1 H0D       0.311500
     31 H15         -1.5810     1.4240     1.9380 ha         1 H0D       0.147000
@<TRIPOS>BOND
     1     1     3 1   
     2     1    10 1   
     3     1    17 1   
     4     2    10 1   
     5     2    11 1   
     6     2    18 1   
     7     2    19 1   
     8     3    12 2   
     9     3    13 1   
    10     4     5 ar  
    11     4    13 1   
    12     4    15 ar  
    13     5     6 ar  
    14     5    20 1   
    15     6    14 ar  
    16     6    21 1   
    17     7    14 ar  
    18     7    15 ar  
    19     7    22 1   
    20     8     9 1   
    21     8    23 1   
    22     8    24 1   
    23     8    25 1   
    24     9    10 1   
    25     9    26 1   
    26     9    27 1   
    27    10    28 1   
    28    11    29 1   
    29    13    30 1   
    30    14    16 1   
    31    15    31 1   
@<TRIPOS>SUBSTRUCTURE
     1 H0D         1 TEMP              0 ****  ****    0 ROOT
