@<TRIPOS>MOLECULE
H0F
   43    43     1     0     0
SMALL
bcc


@<TRIPOS>ATOM
      1 C16         17.9100   -28.4140     9.8340 c3         1 H0F       0.111500
      2 C17         18.8440   -29.5330    10.3220 c3         1 H0F      -0.081700
      3 C18         18.1010   -30.8690    10.3380 c3         1 H0F      -0.087100
      4 N15         18.5050   -27.1030     9.6030 n7         1 H0F      -0.822200
      5 C32         19.2210   -26.5020    10.7120 c3         1 H0F       0.150100
      6 C19         20.1270   -29.6240     9.4870 c3         1 H0F      -0.077400
      7 C20         19.9360   -29.9180     8.0030 c3         1 H0F      -0.092100
      8 C21         16.7420   -28.1930    10.7990 c          1 H0F       0.684100
      9 O31         16.8770   -28.3380    12.0100 o          1 H0F      -0.629100
     10 N22         15.5790   -27.7770    10.2670 n          1 H0F      -0.472800
     11 C26         15.3250   -27.5050     8.8530 c5         1 H0F       0.104000
     12 C25         13.8620   -27.0760     8.8250 c5         1 H0F      -0.093400
     13 C24         13.6450   -26.4700    10.2070 c5         1 H0F      -0.093400
     14 C23         14.4670   -27.3740    11.1240 c5         1 H0F       0.119700
     15 C27         13.6810   -28.5950    11.6330 c3         1 H0F      -0.180400
     16 C28         12.6830   -28.1990    12.7010 c          1 H0F       0.673100
     17 O30         11.4960   -28.0220    12.4660 o          1 H0F      -0.612100
     18 N29         13.2200   -28.0240    13.9210 nt         1 H0F      -0.678000
     19 H1          17.5080   -28.7300     8.8670 h1         1 H0F       0.061700
     20 H2          19.1510   -29.3120    11.3480 hc         1 H0F       0.071700
     21 H3          17.2650   -30.8630    11.0370 hc         1 H0F       0.036367
     22 H4          17.7000   -31.1200     9.3530 hc         1 H0F       0.036367
     23 H5          18.7680   -31.6790    10.6370 hc         1 H0F       0.036367
     24 H6          19.1030   -27.1440     8.7890 hn         1 H0F       0.363800
     25 H8          19.7120   -25.5970    10.3560 h1         1 H0F       0.034700
     26 H9          18.5330   -26.2010    11.5030 h1         1 H0F       0.034700
     27 H10         19.9910   -27.1360    11.1680 h1         1 H0F       0.034700
     28 H11         20.7510   -30.4080     9.9250 hc         1 H0F       0.039200
     29 H12         20.7050   -28.7020     9.5950 hc         1 H0F       0.039200
     30 H13         20.9020   -29.9770     7.5000 hc         1 H0F       0.032033
     31 H14         19.4270   -30.8670     7.8340 hc         1 H0F       0.032033
     32 H15         19.3590   -29.1420     7.4960 hc         1 H0F       0.032033
     33 H16         15.4990   -28.3870     8.2360 h1         1 H0F       0.050200
     34 H17         15.9820   -26.7090     8.4950 h1         1 H0F       0.050200
     35 H18         13.6610   -26.3770     8.0150 hc         1 H0F       0.054700
     36 H19         13.2130   -27.9420     8.6780 hc         1 H0F       0.054700
     37 H20         14.0450   -25.4540    10.2390 hc         1 H0F       0.065200
     38 H21         12.5960   -26.4200    10.4940 hc         1 H0F       0.065200
     39 H22         14.8560   -26.8210    11.9820 h1         1 H0F       0.071700
     40 H23         13.1470   -29.0690    10.8080 hc         1 H0F       0.073700
     41 H24         14.3820   -29.3260    12.0410 hc         1 H0F       0.073700
     42 H25         12.6520   -27.7160    14.6930 hn         1 H0F       0.316500
     43 H26         14.1970   -28.1820    14.0960 hn         1 H0F       0.316500
@<TRIPOS>BOND
     1     1     2 1   
     2     1     4 1   
     3     1     8 1   
     4     1    19 1   
     5     2     3 1   
     6     2     6 1   
     7     2    20 1   
     8     3    21 1   
     9     3    22 1   
    10     3    23 1   
    11     4     5 1   
    12     4    24 1   
    13     5    25 1   
    14     5    26 1   
    15     5    27 1   
    16     6     7 1   
    17     6    28 1   
    18     6    29 1   
    19     7    30 1   
    20     7    31 1   
    21     7    32 1   
    22     8     9 2   
    23     8    10 1   
    24    10    11 1   
    25    10    14 1   
    26    11    12 1   
    27    11    33 1   
    28    11    34 1   
    29    12    13 1   
    30    12    35 1   
    31    12    36 1   
    32    13    14 1   
    33    13    37 1   
    34    13    38 1   
    35    14    15 1   
    36    14    39 1   
    37    15    16 1   
    38    15    40 1   
    39    15    41 1   
    40    16    17 2   
    41    16    18 1   
    42    18    42 1   
    43    18    43 1   
@<TRIPOS>SUBSTRUCTURE
     1 H0F         1 TEMP              0 ****  ****    0 ROOT
