@<TRIPOS>MOLECULE
H0F
   43    43     1     0     0
SMALL
No Charge or Current Charge


@<TRIPOS>ATOM
      1 C16         17.9540   -28.4330     9.8120 c3         1 H0F       0.111500
      2 C17         18.9890   -29.4970    10.3270 c3         1 H0F      -0.081700
      3 C18         18.3050   -30.8540    10.6500 c3         1 H0F      -0.087100
      4 N15         18.6570   -27.1920     9.3250 n7         1 H0F      -0.877400
      5 C32         19.2520   -26.3130    10.3550 c3         1 H0F       0.150100
      6 C19         20.2140   -29.7140     9.3820 c3         1 H0F      -0.077400
      7 C20         19.8750   -30.2040     7.9550 c3         1 H0F      -0.092100
      8 C21         16.7970   -28.1220    10.8490 c          1 H0F       0.617100
      9 O31         16.9470   -28.2680    12.0610 o          1 H0F      -0.629100
     10 N22         15.5510   -27.6790    10.3450 n          1 H0F      -0.405800
     11 C26         15.3750   -27.1810     8.9610 c5         1 H0F       0.104000
     12 C25         13.8690   -26.8280     8.9310 c5         1 H0F      -0.093400
     13 C24         13.6590   -26.2980    10.3720 c5         1 H0F      -0.093400
     14 C23         14.4090   -27.3590    11.2330 c5         1 H0F       0.119700
     15 C27         13.5830   -28.6300    11.5580 c3         1 H0F      -0.180400
     16 C28         12.4820   -28.3350    12.5740 c          1 H0F       0.606100
     17 O30         11.3570   -27.9830    12.2640 o          1 H0F      -0.612100
     18 N29         12.8180   -28.4780    13.8720 nt         1 H0F      -0.611000
     19 H1          17.4550   -28.9000     8.9540 h1         1 H0F       0.061700
     20 H2          19.3980   -29.1230    11.2750 hc         1 H0F       0.071700
     21 H3          17.5740   -30.7540    11.4600 hc         1 H0F       0.036367
     22 H4          17.7820   -31.2530     9.7730 hc         1 H0F       0.036367
     23 H5          19.0470   -31.5960    10.9720 hc         1 H0F       0.036367
     24 H6          19.4010   -27.4830     8.6790 hn         1 H0F       0.419000
     25 H8          19.7220   -25.4380     9.8870 h1         1 H0F       0.034700
     26 H9          18.4870   -25.9490    11.0550 h1         1 H0F       0.034700
     27 H10         20.0230   -26.8410    10.9320 h1         1 H0F       0.034700
     28 H11         20.8890   -30.4450     9.8440 hc         1 H0F       0.039200
     29 H12         20.7980   -28.7890     9.3090 hc         1 H0F       0.039200
     30 H13         20.7940   -30.3210     7.3690 hc         1 H0F       0.032033
     31 H14         19.3680   -31.1750     7.9790 hc         1 H0F       0.032033
     32 H15         19.2310   -29.4880     7.4300 hc         1 H0F       0.032033
     33 H16         15.6240   -27.9360     8.2040 h1         1 H0F       0.050200
     34 H17         15.9970   -26.2920     8.7880 h1         1 H0F       0.050200
     35 H18         13.6310   -26.0810     8.1650 hc         1 H0F       0.054700
     36 H19         13.2530   -27.7110     8.7270 hc         1 H0F       0.054700
     37 H20         14.1160   -25.3080    10.4930 hc         1 H0F       0.065200
     38 H21         12.6010   -26.1930    10.6340 hc         1 H0F       0.065200
     39 H22         14.7500   -26.9110    12.1770 h1         1 H0F       0.071700
     40 H23         13.1370   -29.0470    10.6490 hc         1 H0F       0.073700
     41 H24         14.2740   -29.3570    12.0000 hc         1 H0F       0.073700
     42 H25         12.1270   -28.2940    14.5840 hn         1 H0F       0.316500
     43 H26         13.7510   -28.7680    14.1250 hn         1 H0F       0.316500
@<TRIPOS>BOND
     1     1     2 1   
     2     1     4 1   
     3     1     8 1   
     4     1    19 1   
     5     2     3 1   
     6     2     6 1   
     7     2    20 1   
     8     3    21 1   
     9     3    22 1   
    10     3    23 1   
    11     4     5 1   
    12     4    24 1   
    13     5    25 1   
    14     5    26 1   
    15     5    27 1   
    16     6     7 1   
    17     6    28 1   
    18     6    29 1   
    19     7    30 1   
    20     7    31 1   
    21     7    32 1   
    22     8     9 2   
    23     8    10 1   
    24    10    11 1   
    25    10    14 1   
    26    11    12 1   
    27    11    33 1   
    28    11    34 1   
    29    12    13 1   
    30    12    35 1   
    31    12    36 1   
    32    13    14 1   
    33    13    37 1   
    34    13    38 1   
    35    14    15 1   
    36    14    39 1   
    37    15    16 1   
    38    15    40 1   
    39    15    41 1   
    40    16    17 2   
    41    16    18 1   
    42    18    42 1   
    43    18    43 1   
@<TRIPOS>SUBSTRUCTURE
     1 H0F         1 TEMP              0 ****  ****    0 ROOT
