@<TRIPOS>MOLECULE
H0G
   28    29     1     0     0
SMALL
No Charge or Current Charge


@<TRIPOS>ATOM
      1 N1          -1.3730    -0.3200    -0.6140 ns         1 H0G      -0.487400
      2 C4           3.7590    -0.6990     1.4540 ca         1 H0G      -0.106000
      3 C5           2.5900    -1.3940     1.1000 ca         1 H0G      -0.090000
      4 C6           1.8650    -1.0220    -0.0480 ca         1 H0G      -0.075300
      5 C7           0.5920    -1.7720    -0.4310 c3         1 H0G      -0.109100
      6 C8          -0.6350    -1.1260     0.2220 c          1 H0G       0.612100
      7 C10         -3.1840     0.5080     0.8770 cc         1 H0G      -0.237000
      8 C2           3.4890     0.7550    -0.4840 ca         1 H0G      -0.073300
      9 C3           4.2080     0.3720     0.6640 ca         1 H0G      -0.102000
     10 C9          -2.5030     0.4150    -0.3480 cc         1 H0G       0.402900
     11 C11         -4.2240     1.3430     0.6390 cd         1 H0G       0.171900
     12 O1          -4.1900     1.7490    -0.6690 os         1 H0G      -0.060700
     13 N2          -3.0540     1.1310    -1.3080 nd         1 H0G      -0.437300
     14 O2          -0.9130    -1.3130     1.3970 o          1 H0G      -0.551100
     15 C12          2.3200     0.0540    -0.8360 ca         1 H0G      -0.096000
     16 H1          -1.0200    -0.2600    -1.5580 hn         1 H0G       0.336500
     17 H2           4.3160    -0.9910     2.3410 ha         1 H0G       0.114000
     18 H3           2.2480    -2.2200     1.7200 ha         1 H0G       0.113000
     19 H4           0.4850    -1.7600    -1.5220 hc         1 H0G       0.068700
     20 H5           0.6630    -2.8110    -0.0890 hc         1 H0G       0.068700
     21 H6          -2.9370     0.0210     1.8110 ha         1 H0G       0.178000
     22 H7           4.6200     1.5550    -2.1530 hc         1 H0G       0.043033
     23 H8           3.1350     2.4530    -1.7960 hc         1 H0G       0.043033
     24 H9           4.5490     2.6370    -0.7520 hc         1 H0G       0.043033
     25 H10          5.1150     0.9030     0.9440 ha         1 H0G       0.112000
     26 H11         -5.0180     1.7140     1.2740 h4         1 H0G       0.058100
     27 H12          1.7650     0.3480    -1.7240 ha         1 H0G       0.108000
     28 C1           3.9740     1.9140    -1.3420 c3         1 H0G      -0.046800
@<TRIPOS>BOND
     1     1     6 1   
     2     1    10 1   
     3     1    16 1   
     4     2     3 ar  
     5     2     9 ar  
     6     2    17 1   
     7     3     4 ar  
     8     3    18 1   
     9     4     5 1   
    10     4    15 ar  
    11     5     6 1   
    12     5    19 1   
    13     5    20 1   
    14     6    14 2   
    15     7    10 1   
    16     7    11 2   
    17     7    21 1   
    18     8     9 ar  
    19     8    15 ar  
    20     8    28 1   
    21     9    25 1   
    22    10    13 2   
    23    11    12 1   
    24    11    26 1   
    25    12    13 1   
    26    15    27 1   
    27    22    28 1   
    28    23    28 1   
    29    24    28 1   
@<TRIPOS>SUBSTRUCTURE
     1 H0G         1 TEMP              0 ****  ****    0 ROOT
