@<TRIPOS>MOLECULE
H0G
   28    29     1     0     0
SMALL
abcg2


@<TRIPOS>ATOM
      1 N1          -1.7410    -0.4950    -0.6840 ns         1 H0G      -0.487400
      2 C4           3.7650    -1.0060     1.3270 ca         1 H0G      -0.106000
      3 C5           2.5220    -1.4240     0.8710 ca         1 H0G      -0.090000
      4 C6           1.9150    -0.7690    -0.1950 ca         1 H0G      -0.075300
      5 C7           0.5640    -1.1930    -0.6880 c3         1 H0G      -0.109100
      6 C8          -0.5620    -0.4460     0.0010 c          1 H0G       0.612100
      7 C10         -3.2700     0.7520     0.9130 cc         1 H0G      -0.237000
      8 C2           3.8180     0.7360    -0.3470 ca         1 H0G      -0.073300
      9 C3           4.4070     0.0660     0.7240 ca         1 H0G      -0.102000
     10 C9          -2.9410     0.0420    -0.2750 cc         1 H0G       0.402900
     11 C11         -4.5840     1.0130     0.7420 cd         1 H0G       0.171900
     12 O1          -5.0120     0.5200    -0.4150 os         1 H0G      -0.060700
     13 N2          -3.9780    -0.0920    -1.0570 nd         1 H0G      -0.437300
     14 O2          -0.4380     0.1170     1.0670 o          1 H0G      -0.551100
     15 C12          2.5710     0.3040    -0.7900 ca         1 H0G      -0.096000
     16 H1          -1.7540    -0.9690    -1.5760 hn         1 H0G       0.336500
     17 H2           4.2360    -1.5190     2.1560 ha         1 H0G       0.114000
     18 H3           2.0250    -2.2620     1.3440 ha         1 H0G       0.113000
     19 H4           0.4860    -1.0620    -1.7700 hc         1 H0G       0.068700
     20 H5           0.4040    -2.2590    -0.4980 hc         1 H0G       0.068700
     21 H6          -2.6440     1.0230     1.7410 ha         1 H0G       0.178000
     22 H7           5.2740     1.5030    -1.7280 hc         1 H0G       0.043033
     23 H8           3.8340     2.5010    -1.5830 hc         1 H0G       0.043033
     24 H9           5.0490     2.5040    -0.3040 hc         1 H0G       0.043033
     25 H10          5.3780     0.3830     1.0870 ha         1 H0G       0.112000
     26 H11         -5.3100     1.5270     1.3530 h4         1 H0G       0.058100
     27 H12          2.1000     0.8180    -1.6220 ha         1 H0G       0.108000
     28 C1           4.5270     1.8730    -1.0240 c3         1 H0G      -0.046800
@<TRIPOS>BOND
     1     1     6 1   
     2     1    10 1   
     3     1    16 1   
     4     2     3 ar  
     5     2     9 ar  
     6     2    17 1   
     7     3     4 ar  
     8     3    18 1   
     9     4     5 1   
    10     4    15 ar  
    11     5     6 1   
    12     5    19 1   
    13     5    20 1   
    14     6    14 2   
    15     7    10 1   
    16     7    11 2   
    17     7    21 1   
    18     8     9 ar  
    19     8    15 ar  
    20     8    28 1   
    21     9    25 1   
    22    10    13 2   
    23    11    12 1   
    24    11    26 1   
    25    12    13 1   
    26    15    27 1   
    27    22    28 1   
    28    23    28 1   
    29    24    28 1   
@<TRIPOS>SUBSTRUCTURE
     1 H0G         1 TEMP              0 ****  ****    0 ROOT
