@<TRIPOS>MOLECULE
H0H
   45    48     1     0     0
SMALL
No Charge or Current Charge


@<TRIPOS>ATOM
      1 CAG         -0.0870    -6.7170    -7.1130 c3         1 H0H       0.078900
      2 NAF         -0.5940    -5.7040    -8.0500 na         1 H0H       0.119800
      3 CAE          0.0310    -5.2790    -9.2200 cc         1 H0H      -0.165000
      4 NAH         -1.8030    -5.0770    -7.7990 nc         1 H0H      -0.510800
      5 CAI         -1.9250    -4.2560    -8.8250 cd         1 H0H       0.209900
      6 CAD         -0.8330    -4.3460    -9.7150 cd         1 H0H      -0.072400
      7 NAC         -0.7070    -3.5890   -10.8770 ns         1 H0H      -0.375100
      8 CAB          0.3020    -3.6140   -11.8340 c          1 H0H       0.627300
      9 OAA          1.2340    -4.3990   -11.7430 o          1 H0H      -0.594100
     10 CAR          0.1470    -2.6050   -12.9430 cc         1 H0H      -0.220400
     11 CAS         -0.7730    -1.5660   -12.8030 cd         1 H0H      -0.007400
     12 CAM          0.9760    -2.5810   -14.1790 ca         1 H0H       0.036200
     13 CAN          1.8150    -3.6630   -14.5530 ca         1 H0H      -0.110000
     14 CAO          2.6110    -3.6130   -15.7080 ca         1 H0H      -0.076000
     15 CAP          2.5770    -2.4860   -16.5340 ca         1 H0H      -0.130000
     16 CAQ          1.7240    -1.4240   -16.2150 ca         1 H0H      -0.049000
     17 CAL          0.9140    -1.4710   -15.0570 ca         1 H0H      -0.168600
     18 CAK         -0.0480    -0.3520   -14.7980 c          1 H0H       0.573600
     19 OAJ         -0.0970     0.6280   -15.5340 o          1 H0H      -0.549000
     20 NAT         -0.8940    -0.4930   -13.6840 n          1 H0H      -0.290000
     21 CAU         -1.8890     0.5700   -13.3930 c3         1 H0H       0.144300
     22 CAV         -1.4830     1.4580   -12.2230 ca         1 H0H      -0.123300
     23 CAW         -2.1550     1.3650   -10.9870 ca         1 H0H      -0.085500
     24 CAX         -1.7710     2.1800    -9.9090 ca         1 H0H      -0.113000
     25 CAY         -0.7140     3.0930   -10.0580 ca         1 H0H      -0.097000
     26 CAZ         -0.0400     3.1910   -11.2870 ca         1 H0H      -0.113000
     27 CBA         -0.4240     2.3760   -12.3660 ca         1 H0H      -0.085500
     28 H1           0.0550    -6.2650    -6.1250 h1         1 H0H       0.057033
     29 H2          -0.8070    -7.5400    -7.0380 h1         1 H0H       0.057033
     30 H3           0.8720    -7.1080    -7.4730 h1         1 H0H       0.057033
     31 H4           0.9820    -5.6630    -9.5660 h4         1 H0H       0.181000
     32 H5          -2.7980    -3.6190    -8.8970 h4         1 H0H       0.036100
     33 H6          -1.4520    -2.9440   -11.0930 hn         1 H0H       0.321500
     34 H7          -1.4360    -1.4390   -11.9530 h4         1 H0H       0.199000
     35 H8           1.8610    -4.5760   -13.9740 ha         1 H0H       0.138000
     36 H9           3.2510    -4.4550   -15.9640 ha         1 H0H       0.117000
     37 H10          3.1920    -2.4450   -17.4300 ha         1 H0H       0.119000
     38 H11          1.6820    -0.5670   -16.8850 ha         1 H0H       0.136000
     39 H12         -2.0610     1.1980   -14.2760 h1         1 H0H       0.069700
     40 H13         -2.8510     0.0900   -13.1710 h1         1 H0H       0.069700
     41 H14         -2.9760     0.6610   -10.8600 ha         1 H0H       0.117000
     42 H15         -2.2930     2.1040    -8.9570 ha         1 H0H       0.116000
     43 H16         -0.4170     3.7240    -9.2220 ha         1 H0H       0.115000
     44 H17          0.7780     3.8970   -11.4040 ha         1 H0H       0.116000
     45 H18          0.1040     2.4570   -13.3140 ha         1 H0H       0.117000
@<TRIPOS>BOND
     1     1     2 1   
     2     1    28 1   
     3     1    29 1   
     4     1    30 1   
     5     2     3 1   
     6     2     4 1   
     7     3     6 2   
     8     3    31 1   
     9     4     5 2   
    10     5     6 1   
    11     5    32 1   
    12     6     7 1   
    13     7     8 1   
    14     7    33 1   
    15     8     9 2   
    16     8    10 1   
    17    10    11 2   
    18    10    12 1   
    19    11    20 1   
    20    11    34 1   
    21    12    13 ar  
    22    12    17 ar  
    23    13    14 ar  
    24    13    35 1   
    25    14    15 ar  
    26    14    36 1   
    27    15    16 ar  
    28    15    37 1   
    29    16    17 ar  
    30    16    38 1   
    31    17    18 1   
    32    18    19 2   
    33    18    20 1   
    34    20    21 1   
    35    21    22 1   
    36    21    39 1   
    37    21    40 1   
    38    22    23 ar  
    39    22    27 ar  
    40    23    24 ar  
    41    23    41 1   
    42    24    25 ar  
    43    24    42 1   
    44    25    26 ar  
    45    25    43 1   
    46    26    27 ar  
    47    26    44 1   
    48    27    45 1   
@<TRIPOS>SUBSTRUCTURE
     1 H0H         1 TEMP              0 ****  ****    0 ROOT
