@<TRIPOS>MOLECULE
H0H
   45    48     1     0     0
SMALL
abcg2


@<TRIPOS>ATOM
      1 CAG         -0.1450    -7.1030    -7.2530 c3         1 H0H       0.078900
      2 NAF         -0.7430    -6.2770    -8.2840 na         1 H0H       0.119800
      3 CAE         -0.0930    -5.5200    -9.2020 cc         1 H0H      -0.165000
      4 NAH         -2.0770    -6.2080    -8.4110 nc         1 H0H      -0.510800
      5 CAI         -2.2940    -5.3840    -9.4360 cd         1 H0H       0.209900
      6 CAD         -1.0770    -4.9190    -9.9720 cd         1 H0H      -0.072400
      7 NAC         -0.9600    -4.0370   -11.0480 ns         1 H0H      -0.375100
      8 CAB          0.2020    -3.5390   -11.5430 c          1 H0H       0.627300
      9 OAA          1.3040    -3.8940   -11.1240 o          1 H0H      -0.594100
     10 CAR          0.0480    -2.5120   -12.6120 cc         1 H0H      -0.220400
     11 CAS         -0.8600    -1.5180   -12.4500 cd         1 H0H      -0.007400
     12 CAM          0.8960    -2.4930   -13.7810 ca         1 H0H       0.036200
     13 CAN          1.8380    -3.4990   -14.0720 ca         1 H0H      -0.110000
     14 CAO          2.5960    -3.4390   -15.2230 ca         1 H0H      -0.076000
     15 CAP          2.4460    -2.3780   -16.1250 ca         1 H0H      -0.130000
     16 CAQ          1.5250    -1.3860   -15.8630 ca         1 H0H      -0.049000
     17 CAL          0.7420    -1.4310   -14.7000 ca         1 H0H      -0.168600
     18 CAK         -0.2320    -0.3600   -14.4760 c          1 H0H       0.573600
     19 OAJ         -0.3820     0.6010   -15.2310 o          1 H0H      -0.549000
     20 NAT         -1.0080    -0.4830   -13.3310 n          1 H0H      -0.290000
     21 CAU         -1.9730     0.5900   -13.0200 c3         1 H0H       0.144300
     22 CAV         -1.3340     1.7330   -12.2680 ca         1 H0H      -0.123300
     23 CAW         -1.1030     1.6290   -10.8960 ca         1 H0H      -0.085500
     24 CAX         -0.4940     2.6680   -10.2010 ca         1 H0H      -0.113000
     25 CAY         -0.1140     3.8270   -10.8720 ca         1 H0H      -0.097000
     26 CAZ         -0.3480     3.9410   -12.2390 ca         1 H0H      -0.113000
     27 CBA         -0.9540     2.8980   -12.9320 ca         1 H0H      -0.085500
     28 H1          -0.5020    -6.7890    -6.2730 h1         1 H0H       0.057033
     29 H2          -0.4020    -8.1490    -7.4160 h1         1 H0H       0.057033
     30 H3           0.9350    -6.9840    -7.3010 h1         1 H0H       0.057033
     31 H4           0.9770    -5.4640    -9.2420 h4         1 H0H       0.181000
     32 H5          -3.2970    -5.1480    -9.7550 h4         1 H0H       0.036100
     33 H6          -1.8200    -3.7680   -11.5010 hn         1 H0H       0.321500
     34 H7          -1.5080    -1.4740   -11.5860 h4         1 H0H       0.199000
     35 H8           1.9660    -4.3190   -13.3820 ha         1 H0H       0.138000
     36 H9           3.3130    -4.2240   -15.4310 ha         1 H0H       0.117000
     37 H10          3.0470    -2.3400   -17.0240 ha         1 H0H       0.119000
     38 H11          1.3860    -0.5600   -16.5470 ha         1 H0H       0.136000
     39 H12         -2.3910     0.9350   -13.9610 h1         1 H0H       0.069700
     40 H13         -2.7680     0.1380   -12.4290 h1         1 H0H       0.069700
     41 H14         -1.4070     0.7350   -10.3650 ha         1 H0H       0.117000
     42 H15         -0.3230     2.5760    -9.1360 ha         1 H0H       0.116000
     43 H16          0.3570     4.6380   -10.3310 ha         1 H0H       0.115000
     44 H17         -0.0590     4.8420   -12.7660 ha         1 H0H       0.116000
     45 H18         -1.1300     2.9840   -13.9960 ha         1 H0H       0.117000
@<TRIPOS>BOND
     1     1     2 1   
     2     1    28 1   
     3     1    29 1   
     4     1    30 1   
     5     2     3 1   
     6     2     4 1   
     7     3     6 2   
     8     3    31 1   
     9     4     5 2   
    10     5     6 1   
    11     5    32 1   
    12     6     7 1   
    13     7     8 1   
    14     7    33 1   
    15     8     9 2   
    16     8    10 1   
    17    10    11 2   
    18    10    12 1   
    19    11    20 1   
    20    11    34 1   
    21    12    13 ar  
    22    12    17 ar  
    23    13    14 ar  
    24    13    35 1   
    25    14    15 ar  
    26    14    36 1   
    27    15    16 ar  
    28    15    37 1   
    29    16    17 ar  
    30    16    38 1   
    31    17    18 1   
    32    18    19 2   
    33    18    20 1   
    34    20    21 1   
    35    21    22 1   
    36    21    39 1   
    37    21    40 1   
    38    22    23 ar  
    39    22    27 ar  
    40    23    24 ar  
    41    23    41 1   
    42    24    25 ar  
    43    24    42 1   
    44    25    26 ar  
    45    25    43 1   
    46    26    27 ar  
    47    26    44 1   
    48    27    45 1   
@<TRIPOS>SUBSTRUCTURE
     1 H0H         1 TEMP              0 ****  ****    0 ROOT
