@<TRIPOS>MOLECULE
H0I
   55    56     1     0     0
SMALL
abcg2


@<TRIPOS>ATOM
      1 C01         -2.0150    -1.1100    15.0500 c3         1 H0I      -0.088100
      2 C02         -3.4110    -0.7390    15.5490 c3         1 H0I      -0.131700
      3 C03         -4.4430    -1.7500    15.1430 ca         1 H0I       0.184300
      4 N04         -4.3640    -2.9420    15.7500 nb         1 H0I      -0.277000
      5 C05         -5.2540    -3.8600    15.3940 ca         1 H0I       0.397900
      6 N06         -5.1400    -5.0890    15.9660 nv         1 H0I      -1.048900
      7 N07         -6.2340    -3.7080    14.5030 nb         1 H0I      -0.328000
      8 C08         -6.3160    -2.5300    13.8970 ca         1 H0I       0.395900
      9 N09         -7.2760    -2.3560    12.9680 nv         1 H0I      -1.063900
     10 C10         -5.4090    -1.4890    14.1950 ca         1 H0I      -0.121900
     11 O11         -5.5420    -0.2970    13.5420 os         1 H0I      -0.362100
     12 C12         -4.7010    -0.1700    12.3940 c3         1 H0I       0.144600
     13 C13         -5.1540     0.9970    11.5430 c3         1 H0I      -0.067400
     14 C14         -5.2460     2.3530    12.2440 c3         1 H0I      -0.066400
     15 C15         -4.0700     2.7010    13.1330 c3         1 H0I       0.166600
     16 O16         -2.8660     2.5320    12.3990 os         1 H0I      -0.354100
     17 C17         -1.7150     2.3930    13.0910 ca         1 H0I       0.124100
     18 C18         -1.5320     2.8560    14.3920 ca         1 H0I      -0.213000
     19 C19         -0.3040     2.6590    15.0130 ca         1 H0I      -0.091000
     20 C20          0.7320     2.0090    14.3620 ca         1 H0I      -0.150000
     21 C21          0.5540     1.5410    13.0590 ca         1 H0I      -0.018300
     22 C22          1.6330     0.7600    12.3650 c3         1 H0I      -0.041100
     23 C23          1.5730    -0.7280    12.7180 c3         1 H0I      -0.039400
     24 C24          2.6010    -1.5580    11.9640 c3         1 H0I      -0.211400
     25 C25          2.3730    -1.6900    10.4420 c          1 H0I       0.715000
     26 O26          3.3790    -1.9730     9.7600 o          1 H0I      -0.741500
     27 O27          1.2070    -1.5440    10.0200 o          1 H0I      -0.741500
     28 C28         -0.6700     1.7420    12.4360 ca         1 H0I      -0.136000
     29 H012        -1.2830    -0.3740    15.3830 hc         1 H0I       0.047700
     30 H011        -1.7100    -2.0850    15.4280 hc         1 H0I       0.047700
     31 H013        -1.9770    -1.1440    13.9610 hc         1 H0I       0.047700
     32 H021        -3.4000    -0.6880    16.6400 hc         1 H0I       0.053200
     33 H022        -3.6780     0.2550    15.1910 hc         1 H0I       0.053200
     34 H062        -4.5950    -5.1510    16.8090 hn         1 H0I       0.477500
     35 H061        -5.9440    -5.6920    15.9260 hn         1 H0I       0.477500
     36 H092        -8.0110    -3.0420    12.9120 hn         1 H0I       0.487000
     37 H091        -7.5100    -1.4250    12.6700 hn         1 H0I       0.487000
     38 H121        -3.6610    -0.0410    12.7140 h1         1 H0I       0.048700
     39 H122        -4.7390    -1.0880    11.7970 h1         1 H0I       0.048700
     40 H132        -4.4550     1.0580    10.7070 hc         1 H0I       0.048700
     41 H131        -6.1280     0.7660    11.1020 hc         1 H0I       0.048700
     42 H142        -5.3840     3.1270    11.4860 hc         1 H0I       0.041700
     43 H141        -6.1370     2.3920    12.8760 hc         1 H0I       0.041700
     44 H152        -4.1650     3.7320    13.4910 h1         1 H0I       0.031700
     45 H151        -4.0620     2.0540    14.0160 h1         1 H0I       0.031700
     46 H181        -2.3210     3.3730    14.9220 ha         1 H0I       0.101000
     47 H191        -0.1620     3.0240    16.0230 ha         1 H0I       0.095000
     48 H201         1.6810     1.8610    14.8630 ha         1 H0I       0.110000
     49 H221         2.6150     1.1550    12.6390 hc         1 H0I       0.057700
     50 H222         1.5330     0.8770    11.2840 hc         1 H0I       0.057700
     51 H231         1.7260    -0.8370    13.7960 hc         1 H0I       0.020700
     52 H232         0.5690    -1.1060    12.5110 hc         1 H0I       0.020700
     53 H242         3.6060    -1.1660    12.1480 hc         1 H0I       0.018700
     54 H241         2.6070    -2.5740    12.3780 hc         1 H0I       0.018700
     55 H281        -0.8290     1.3750    11.4270 ha         1 H0I       0.144000
@<TRIPOS>BOND
     1     1     2 1   
     2     1    29 1   
     3     1    30 1   
     4     1    31 1   
     5     2     3 1   
     6     2    32 1   
     7     2    33 1   
     8     3     4 ar  
     9     3    10 ar  
    10     4     5 ar  
    11     5     6 1   
    12     5     7 ar  
    13     6    34 1   
    14     6    35 1   
    15     7     8 ar  
    16     8     9 1   
    17     8    10 ar  
    18     9    36 1   
    19     9    37 1   
    20    10    11 1   
    21    11    12 1   
    22    12    13 1   
    23    12    38 1   
    24    12    39 1   
    25    13    14 1   
    26    13    40 1   
    27    13    41 1   
    28    14    15 1   
    29    14    42 1   
    30    14    43 1   
    31    15    16 1   
    32    15    44 1   
    33    15    45 1   
    34    16    17 1   
    35    17    18 ar  
    36    17    28 ar  
    37    18    19 ar  
    38    18    46 1   
    39    19    20 ar  
    40    19    47 1   
    41    20    21 ar  
    42    20    48 1   
    43    21    22 1   
    44    21    28 ar  
    45    22    23 1   
    46    22    49 1   
    47    22    50 1   
    48    23    24 1   
    49    23    51 1   
    50    23    52 1   
    51    24    25 1   
    52    24    53 1   
    53    24    54 1   
    54    25    26 1   
    55    25    27 1   
    56    28    55 1   
@<TRIPOS>SUBSTRUCTURE
     1 H0I         1 TEMP              0 ****  ****    0 ROOT
