@<TRIPOS>MOLECULE
H0I
   55    56     1     0     0
SMALL
No Charge or Current Charge


@<TRIPOS>ATOM
      1 C01         -1.9450    -1.4520    14.3900 c3         1 H0I      -0.088100
      2 C02         -3.1920    -0.8930    15.1090 c3         1 H0I      -0.131700
      3 C03         -4.4240    -1.7890    14.9750 ca         1 H0I       0.184300
      4 N04         -4.4170    -2.8920    15.7560 nb         1 H0I      -0.277000
      5 C05         -5.5060    -3.6690    15.7120 ca         1 H0I       0.397900
      6 N06         -5.4870    -4.7690    16.4980 nv         1 H0I      -1.048900
      7 N07         -6.6200    -3.4840    14.9980 nb         1 H0I      -0.328000
      8 C08         -6.6320    -2.3930    14.2260 ca         1 H0I       0.395900
      9 N09         -7.7720    -2.2140    13.5050 nv         1 H0I      -1.063900
     10 C10         -5.5470    -1.4910    14.1560 ca         1 H0I      -0.121900
     11 O11         -5.6250    -0.3720    13.3390 os         1 H0I      -0.362100
     12 C12         -4.7420    -0.2430    12.2100 c3         1 H0I       0.144600
     13 C13         -5.1580     0.9920    11.3750 c3         1 H0I      -0.067400
     14 C14         -5.2810     2.3340    12.1490 c3         1 H0I      -0.066400
     15 C15         -4.1260     2.6540    13.1250 c3         1 H0I       0.166600
     16 O16         -2.8750     2.3700    12.4740 os         1 H0I      -0.354100
     17 C17         -1.7010     2.2470    13.1850 ca         1 H0I       0.124100
     18 C18         -1.5830     2.6640    14.5280 ca         1 H0I      -0.213000
     19 C19         -0.3720     2.4780    15.2150 ca         1 H0I      -0.091000
     20 C20          0.7190     1.8740    14.5680 ca         1 H0I      -0.150000
     21 C21          0.6100     1.4590    13.2280 ca         1 H0I      -0.018300
     22 C22          1.7820     0.7800    12.5320 c3         1 H0I      -0.041100
     23 C23          1.6400    -0.7600    12.5330 c3         1 H0I      -0.039400
     24 C24          2.8460    -1.5230    11.9260 c3         1 H0I      -0.211400
     25 C25          3.0020    -1.2350    10.4210 c          1 H0I       0.715000
     26 O26          3.7420    -0.3260    10.0780 o          1 H0I      -0.741500
     27 O27          2.3610    -1.9160     9.6360 o          1 H0I      -0.741500
     28 C28         -0.6030     1.6540    12.5420 ca         1 H0I      -0.136000
     29 H012        -1.1010    -0.7600    14.4970 hc         1 H0I       0.047700
     30 H011        -1.6500    -2.4180    14.8170 hc         1 H0I       0.047700
     31 H013        -2.1370    -1.5960    13.3200 hc         1 H0I       0.047700
     32 H021        -2.9480    -0.7640    16.1710 hc         1 H0I       0.053200
     33 H022        -3.4000     0.1140    14.7400 hc         1 H0I       0.053200
     34 H062        -4.7710    -4.8380    17.2160 hn         1 H0I       0.477500
     35 H061        -6.3600    -5.2630    16.6650 hn         1 H0I       0.477500
     36 H092        -8.6040    -2.7290    13.7810 hn         1 H0I       0.487000
     37 H091        -7.9120    -1.3050    13.0700 hn         1 H0I       0.487000
     38 H121        -3.7020    -0.1260    12.5300 h1         1 H0I       0.048700
     39 H122        -4.7970    -1.1370    11.5760 h1         1 H0I       0.048700
     40 H132        -4.4250     1.1150    10.5690 hc         1 H0I       0.048700
     41 H131        -6.1160     0.7800    10.8840 hc         1 H0I       0.048700
     42 H142        -5.3660     3.1510    11.4230 hc         1 H0I       0.041700
     43 H141        -6.2180     2.3340    12.7200 hc         1 H0I       0.041700
     44 H152        -4.1780     3.7050    13.4390 h1         1 H0I       0.031700
     45 H151        -4.2460     2.0270    14.0160 h1         1 H0I       0.031700
     46 H181        -2.4130     3.1310    15.0490 ha         1 H0I       0.101000
     47 H191        -0.2800     2.7970    16.2510 ha         1 H0I       0.095000
     48 H201         1.6490     1.7250    15.1120 ha         1 H0I       0.110000
     49 H221         2.7240     1.0570    13.0210 hc         1 H0I       0.057700
     50 H222         1.8550     1.1420    11.5000 hc         1 H0I       0.057700
     51 H231         1.5050    -1.0950    13.5680 hc         1 H0I       0.020700
     52 H232         0.7270    -1.0390    11.9930 hc         1 H0I       0.020700
     53 H242         3.7320    -1.1890    12.4810 hc         1 H0I       0.018700
     54 H241         2.6110    -2.5840    12.0800 hc         1 H0I       0.018700
     55 H281        -0.7040     1.3270    11.5110 ha         1 H0I       0.144000
@<TRIPOS>BOND
     1     1     2 1   
     2     1    29 1   
     3     1    30 1   
     4     1    31 1   
     5     2     3 1   
     6     2    32 1   
     7     2    33 1   
     8     3     4 ar  
     9     3    10 ar  
    10     4     5 ar  
    11     5     6 1   
    12     5     7 ar  
    13     6    34 1   
    14     6    35 1   
    15     7     8 ar  
    16     8     9 1   
    17     8    10 ar  
    18     9    36 1   
    19     9    37 1   
    20    10    11 1   
    21    11    12 1   
    22    12    13 1   
    23    12    38 1   
    24    12    39 1   
    25    13    14 1   
    26    13    40 1   
    27    13    41 1   
    28    14    15 1   
    29    14    42 1   
    30    14    43 1   
    31    15    16 1   
    32    15    44 1   
    33    15    45 1   
    34    16    17 1   
    35    17    18 ar  
    36    17    28 ar  
    37    18    19 ar  
    38    18    46 1   
    39    19    20 ar  
    40    19    47 1   
    41    20    21 ar  
    42    20    48 1   
    43    21    22 1   
    44    21    28 ar  
    45    22    23 1   
    46    22    49 1   
    47    22    50 1   
    48    23    24 1   
    49    23    51 1   
    50    23    52 1   
    51    24    25 1   
    52    24    53 1   
    53    24    54 1   
    54    25    26 1   
    55    25    27 1   
    56    28    55 1   
@<TRIPOS>SUBSTRUCTURE
     1 H0I         1 TEMP              0 ****  ****    0 ROOT
