@<TRIPOS>MOLECULE
H0J
   22    23     1     0     0
SMALL
bcc


@<TRIPOS>ATOM
      1 N1           2.9050     1.2210     0.1270 nb         1 H0J      -0.663000
      2 C4           2.1530     0.1230     0.0640 ca         1 H0J       0.490800
      3 C5           2.7060    -1.1490    -0.0720 ca         1 H0J      -0.239300
      4 C6           0.7080     0.3430     0.1480 cc         1 H0J      -0.098600
      5 C7           0.0640     1.5430     0.3120 cd         1 H0J      -0.121000
      6 C8          -1.3370     1.4170     0.3370 cd         1 H0J      -0.070000
      7 C1           4.0830    -1.2720    -0.1470 ca         1 H0J      -0.085000
      8 C2           4.8640    -0.1300    -0.0820 ca         1 H0J      -0.244300
      9 C3           4.2210     1.0930     0.0560 ca         1 H0J       0.412200
     10 C9          -1.7650     0.1220     0.1990 cc         1 H0J      -0.113700
     11 S1          -0.4190    -0.9480     0.0230 ss         1 H0J      -0.098800
     12 S2          -4.4130     0.6980    -0.0660 s          1 H0J      -0.565400
     13 N2          -3.3380    -1.6500     0.3970 nt         1 H0J      -0.575000
     14 H1           2.0820    -2.0330    -0.1170 ha         1 H0J       0.142000
     15 H2           0.5900     2.4810     0.4100 ha         1 H0J       0.179000
     16 H3          -2.0210     2.2440     0.4610 ha         1 H0J       0.185000
     17 H4           4.5350    -2.2490    -0.2550 ha         1 H0J       0.140000
     18 H5           5.9430    -0.1790    -0.1350 ha         1 H0J       0.145000
     19 H6           4.7970     2.0100     0.1110 h4         1 H0J       0.023100
     20 H7          -4.2750    -2.0200     0.3890 hn         1 H0J       0.324500
     21 H8          -2.6050    -2.2850     0.6750 hn         1 H0J       0.324500
     22 C10         -3.1450    -0.3530     0.1960 cs         1 H0J       0.508000
@<TRIPOS>BOND
     1     1     2 ar  
     2     1     9 ar  
     3     2     3 ar  
     4     2     4 1   
     5     3     7 ar  
     6     3    14 1   
     7     4     5 2   
     8     4    11 1   
     9     5     6 1   
    10     5    15 1   
    11     6    10 2   
    12     6    16 1   
    13     7     8 ar  
    14     7    17 1   
    15     8     9 ar  
    16     8    18 1   
    17     9    19 1   
    18    10    11 1   
    19    10    22 1   
    20    12    22 2   
    21    13    20 1   
    22    13    21 1   
    23    13    22 1   
@<TRIPOS>SUBSTRUCTURE
     1 H0J         1 TEMP              0 ****  ****    0 ROOT
