@<TRIPOS>MOLECULE
H0J
   22    23     1     0     0
SMALL
No Charge or Current Charge


@<TRIPOS>ATOM
      1 N1           2.9070     1.2500     0.0870 nb         1 H0J      -0.663000
      2 C4           2.1610     0.1170     0.0740 ca         1 H0J       0.425500
      3 C5           2.7590    -1.1600    -0.0120 ca         1 H0J      -0.156000
      4 C6           0.7000     0.2550     0.1530 cc         1 H0J      -0.243500
      5 C7           0.0710     1.4780     0.2390 cd         1 H0J      -0.103000
      6 C8          -1.3460     1.3700     0.3040 cd         1 H0J      -0.052000
      7 C1           4.1560    -1.2730    -0.0860 ca         1 H0J      -0.067000
      8 C2           4.9150    -0.0940    -0.0720 ca         1 H0J      -0.161000
      9 C3           4.2530     1.1400     0.0150 ca         1 H0J       0.346900
     10 C9          -1.7960     0.0690     0.2690 cc         1 H0J      -0.258600
     11 S1          -0.4560    -1.0730     0.1520 ss         1 H0J       0.191000
     12 S2          -4.4790     0.7600     0.4330 s          1 H0J      -0.565400
     13 N2          -3.4390    -1.6120     0.2770 nt         1 H0J      -0.508000
     14 H1           2.1500    -2.0580    -0.0210 ha         1 H0J       0.124000
     15 H2           0.5870     2.4340     0.2550 ha         1 H0J       0.161000
     16 H3          -2.0000     2.2360     0.3750 ha         1 H0J       0.167000
     17 H4           4.6370    -2.2470    -0.1530 ha         1 H0J       0.122000
     18 H5           6.0000    -0.1280    -0.1280 ha         1 H0J       0.127000
     19 H6           4.8170     2.0720     0.0280 h4         1 H0J       0.023100
     20 H7          -4.3930    -1.9410     0.3100 hn         1 H0J       0.324500
     21 H8          -2.6840    -2.2760     0.2100 hn         1 H0J       0.324500
     22 C10         -3.1880    -0.2920     0.3220 cs         1 H0J       0.441000
@<TRIPOS>BOND
     1     1     2 ar  
     2     1     9 ar  
     3     2     3 ar  
     4     2     4 1   
     5     3     7 ar  
     6     3    14 1   
     7     4     5 2   
     8     4    11 1   
     9     5     6 1   
    10     5    15 1   
    11     6    10 2   
    12     6    16 1   
    13     7     8 ar  
    14     7    17 1   
    15     8     9 ar  
    16     8    18 1   
    17     9    19 1   
    18    10    11 1   
    19    10    22 1   
    20    12    22 2   
    21    13    20 1   
    22    13    21 1   
    23    13    22 1   
@<TRIPOS>SUBSTRUCTURE
     1 H0J         1 TEMP              0 ****  ****    0 ROOT
