@<TRIPOS>MOLECULE
H0K
   45    49     1     0     0
SMALL
bcc


@<TRIPOS>ATOM
      1 O2          -9.0210    -0.7190    -0.1830 oh         1 H0K      -0.492100
      2 C19         -7.6900    -0.5400    -0.0940 ca         1 H0K       0.146100
      3 C18         -6.8450    -1.4560     0.5260 ca         1 H0K      -0.195500
      4 C17         -5.4820    -1.2120     0.5880 ca         1 H0K      -0.075000
      5 C20         -7.1480     0.6170    -0.6510 ca         1 H0K      -0.195500
      6 C21         -5.7860     0.8470    -0.5800 ca         1 H0K      -0.075000
      7 C16         -4.9220    -0.0580     0.0410 cp         1 H0K      -0.078000
      8 C13         -3.4730     0.1980     0.1200 cp         1 H0K      -0.014000
      9 C12         -2.5470    -0.8460     0.0450 ca         1 H0K      -0.119500
     10 C11         -1.1880    -0.6050     0.1290 ca         1 H0K      -0.114000
     11 C14         -2.9770     1.4940     0.2750 ca         1 H0K      -0.119500
     12 C15         -1.6170     1.7400     0.3510 ca         1 H0K      -0.114000
     13 C10         -0.6970     0.6930     0.2850 ca         1 H0K      -0.018000
     14 C9           0.7410     0.9120     0.3640 cc         1 H0K      -0.014300
     15 C7           1.8130     0.1050     0.0520 cd         1 H0K      -0.263600
     16 C6           2.2130    -1.2330    -0.4790 c5         1 H0K       0.054200
     17 N2           1.3020     2.0770     0.7920 na         1 H0K      -0.008600
     18 N1           2.6350     2.0870     0.7810 nc         1 H0K      -0.478800
     19 C8           2.9410     0.8880     0.3270 cd         1 H0K       0.355800
     20 C22          4.1470     0.1420     0.0090 ca         1 H0K      -0.121500
     21 C5           3.7260    -1.1110    -0.4690 ca         1 H0K      -0.076300
     22 C4           4.6660    -2.0460    -0.8600 ca         1 H0K      -0.125000
     23 C3           6.0170    -1.7240    -0.7740 ca         1 H0K      -0.102000
     24 C23          5.4930     0.4590     0.0930 ca         1 H0K      -0.069000
     25 C2           6.4410    -0.4800    -0.3080 ca         1 H0K      -0.094300
     26 C1           7.9050    -0.1710    -0.1870 c3         1 H0K       0.186700
     27 O1           8.3250    -0.5190     1.1170 oh         1 H0K      -0.590800
     28 H15         -9.2800    -1.5450     0.2390 ho         1 H0K       0.427000
     29 H14         -7.2480    -2.3580     0.9710 ha         1 H0K       0.140000
     30 H13         -4.8530    -1.9330     1.0950 ha         1 H0K       0.134000
     31 H16         -7.7950     1.3310    -1.1460 ha         1 H0K       0.140000
     32 H17         -5.3910     1.7450    -1.0390 ha         1 H0K       0.134000
     33 H10         -2.8890    -1.8630    -0.0950 ha         1 H0K       0.135000
     34 H9          -0.5030    -1.4400     0.0740 ha         1 H0K       0.131500
     35 H11         -3.6610     2.3290     0.3530 ha         1 H0K       0.135000
     36 H12         -1.2870     2.7660     0.4590 ha         1 H0K       0.131500
     37 H7           1.8780    -2.0650     0.1460 hc         1 H0K       0.065700
     38 H8           1.8330    -1.4270    -1.4860 hc         1 H0K       0.065700
     39 H1           0.8160     2.8850     1.1470 hn         1 H0K       0.320700
     40 H6           4.3610    -3.0160    -1.2330 ha         1 H0K       0.132000
     41 H5           6.7570    -2.4530    -1.0840 ha         1 H0K       0.130000
     42 H18          5.8090     1.4290     0.4580 ha         1 H0K       0.144000
     43 H3           8.4600    -0.7300    -0.9490 h1         1 H0K       0.023200
     44 H4           8.0690     0.8950    -0.3880 h1         1 H0K       0.023200
     45 H2           9.2650    -0.3230     1.1860 ho         1 H0K       0.400000
@<TRIPOS>BOND
     1     1     2 1   
     2     1    28 1   
     3     2     3 ar  
     4     2     5 ar  
     5     3     4 ar  
     6     3    29 1   
     7     4     7 ar  
     8     4    30 1   
     9     5     6 ar  
    10     5    31 1   
    11     6     7 ar  
    12     6    32 1   
    13     7     8 1   
    14     8     9 ar  
    15     8    11 ar  
    16     9    10 ar  
    17     9    33 1   
    18    10    13 ar  
    19    10    34 1   
    20    11    12 ar  
    21    11    35 1   
    22    12    13 ar  
    23    12    36 1   
    24    13    14 1   
    25    14    15 2   
    26    14    17 1   
    27    15    16 1   
    28    15    19 1   
    29    16    21 1   
    30    16    37 1   
    31    16    38 1   
    32    17    18 1   
    33    17    39 1   
    34    18    19 2   
    35    19    20 1   
    36    20    21 ar  
    37    20    24 ar  
    38    21    22 ar  
    39    22    23 ar  
    40    22    40 1   
    41    23    25 ar  
    42    23    41 1   
    43    24    25 ar  
    44    24    42 1   
    45    25    26 1   
    46    26    27 1   
    47    26    43 1   
    48    26    44 1   
    49    27    45 1   
@<TRIPOS>SUBSTRUCTURE
     1 H0K         1 TEMP              0 ****  ****    0 ROOT
