@<TRIPOS>MOLECULE
H0K
   45    49     1     0     0
SMALL
No Charge or Current Charge


@<TRIPOS>ATOM
      1 O2          -8.9300    -0.8650    -0.6690 oh         1 H0K      -0.531100
      2 C19         -7.6070    -0.6250    -0.4540 ca         1 H0K       0.146100
      3 C18         -6.8920    -1.3810     0.4870 ca         1 H0K      -0.177500
      4 C17         -5.5260    -1.1260     0.7020 ca         1 H0K      -0.057000
      5 C20         -6.9580     0.3840    -1.1790 ca         1 H0K      -0.177500
      6 C21         -5.5920     0.6410    -0.9640 ca         1 H0K      -0.057000
      7 C16         -4.8470    -0.1100    -0.0190 cp         1 H0K      -0.078000
      8 C13         -3.3920     0.1620     0.2100 cp         1 H0K      -0.014000
      9 C12         -2.4870    -0.8860     0.5110 ca         1 H0K      -0.101500
     10 C11         -1.1220    -0.6310     0.7240 ca         1 H0K      -0.096000
     11 C14         -2.8710     1.4770     0.1390 ca         1 H0K      -0.101500
     12 C15         -1.5060     1.7320     0.3550 ca         1 H0K      -0.096000
     13 C10         -0.6140     0.6800     0.6400 ca         1 H0K      -0.018000
     14 C9           0.8040     0.9700     0.8660 cc         1 H0K      -0.065000
     15 C7           1.8690     0.2060     0.4990 cd         1 H0K      -0.198300
     16 C6           1.9890    -1.1120    -0.2370 c5         1 H0K       0.054200
     17 N2           1.4250     2.1510     1.3240 na         1 H0K      -0.008200
     18 N1           2.8320     2.1200     1.2400 nc         1 H0K      -0.478800
     19 C8           3.0010     0.9150     0.7440 cd         1 H0K       0.290500
     20 C22          4.0980     0.1650     0.2070 ca         1 H0K      -0.121500
     21 C5           3.5420    -0.9930    -0.3700 ca         1 H0K      -0.076300
     22 C4           4.3950    -1.9120    -1.0010 ca         1 H0K      -0.107000
     23 C3           5.7810    -1.6470    -1.0470 ca         1 H0K      -0.084000
     24 C23          5.4660     0.4590     0.1600 ca         1 H0K      -0.051000
     25 C2           6.3220    -0.4680    -0.4750 ca         1 H0K      -0.094300
     26 C1           7.8180    -0.1960    -0.5510 c3         1 H0K       0.209900
     27 O1           8.4790    -0.7280     0.6020 oh         1 H0K      -0.653000
     28 H15         -9.2120    -1.5970    -0.0810 ho         1 H0K       0.466000
     29 H14         -7.3870    -2.1640     1.0560 ha         1 H0K       0.122000
     30 H13         -4.9930    -1.7140     1.4450 ha         1 H0K       0.116000
     31 H16         -7.5110     0.9680    -1.9100 ha         1 H0K       0.122000
     32 H17         -5.1060     1.4190    -1.5470 ha         1 H0K       0.116000
     33 H10         -2.8440    -1.9110     0.5710 ha         1 H0K       0.117000
     34 H9          -0.4660    -1.4600     0.9740 ha         1 H0K       0.113500
     35 H11         -3.5330     2.3120    -0.0730 ha         1 H0K       0.117000
     36 H12         -1.1420     2.7550     0.2890 ha         1 H0K       0.113500
     37 H7           1.6860    -1.9830     0.3550 hc         1 H0K       0.065700
     38 H8           1.4710    -1.1260    -1.2020 hc         1 H0K       0.065700
     39 H1           0.9410     2.9760     1.6710 hn         1 H0K       0.371000
     40 H6           3.9930    -2.8170    -1.4510 ha         1 H0K       0.114000
     41 H5           6.4410    -2.3600    -1.5360 ha         1 H0K       0.112000
     42 H18          5.8540     1.3730     0.6030 ha         1 H0K       0.126000
     43 H3           8.2240    -0.6500    -1.4650 h1         1 H0K       0.023200
     44 H4           7.9860     0.8870    -0.6200 h1         1 H0K       0.023200
     45 H2           9.4350    -0.5250     0.4960 ho         1 H0K       0.439000
@<TRIPOS>BOND
     1     1     2 1   
     2     1    28 1   
     3     2     3 ar  
     4     2     5 ar  
     5     3     4 ar  
     6     3    29 1   
     7     4     7 ar  
     8     4    30 1   
     9     5     6 ar  
    10     5    31 1   
    11     6     7 ar  
    12     6    32 1   
    13     7     8 1   
    14     8     9 ar  
    15     8    11 ar  
    16     9    10 ar  
    17     9    33 1   
    18    10    13 ar  
    19    10    34 1   
    20    11    12 ar  
    21    11    35 1   
    22    12    13 ar  
    23    12    36 1   
    24    13    14 1   
    25    14    15 2   
    26    14    17 1   
    27    15    16 1   
    28    15    19 1   
    29    16    21 1   
    30    16    37 1   
    31    16    38 1   
    32    17    18 1   
    33    17    39 1   
    34    18    19 2   
    35    19    20 1   
    36    20    21 ar  
    37    20    24 ar  
    38    21    22 ar  
    39    22    23 ar  
    40    22    40 1   
    41    23    25 ar  
    42    23    41 1   
    43    24    25 ar  
    44    24    42 1   
    45    25    26 1   
    46    26    27 1   
    47    26    43 1   
    48    26    44 1   
    49    27    45 1   
@<TRIPOS>SUBSTRUCTURE
     1 H0K         1 TEMP              0 ****  ****    0 ROOT
