@<TRIPOS>MOLECULE
H0L
   57    60     1     0     0
SMALL
No Charge or Current Charge


@<TRIPOS>ATOM
      1 N1         -11.7580   -45.3780    30.1090 n3         1 H0L      -0.737600
      2 C4         -16.9060   -42.7160    26.3410 ca         1 H0L      -0.039300
      3 C5         -16.5050   -42.9500    25.0420 ca         1 H0L      -0.196600
      4 C6         -17.0860   -42.2750    23.9550 ca         1 H0L      -0.103000
      5 C7         -18.0970   -41.3160    24.2120 ca         1 H0L       0.093100
      6 C8         -18.3580   -40.7980    21.8040 c3         1 H0L       0.143900
      7 C10        -14.9820   -44.1200    26.4670 c5         1 H0L      -0.166700
      8 C13        -12.0280   -45.1060    27.6330 c6         1 H0L      -0.097400
      9 C15        -10.9350   -45.8840    31.2380 c3         1 H0L       0.227100
     10 C17         -9.7000   -43.9910    32.4210 ca         1 H0L      -0.074500
     11 C20         -7.2900   -44.6640    31.1370 ca         1 H0L      -0.151500
     12 C21         -8.4550   -45.4080    30.8790 ca         1 H0L      -0.074500
     13 C22        -12.3240   -44.0230    30.3510 c6         1 H0L       0.175800
     14 C24        -16.1860   -43.5860    27.3470 c5         1 H0L      -0.030100
     15 C11        -13.6530   -43.3210    26.6690 c3         1 H0L      -0.084400
     16 C12        -12.6850   -43.7150    27.8350 c6         1 H0L       0.208000
     17 C14        -11.0670   -45.4550    28.7930 c6         1 H0L       0.175800
     18 C16         -9.6690   -45.0710    31.5140 ca         1 H0L      -0.140300
     19 C18         -8.5340   -43.2480    32.6770 ca         1 H0L      -0.151500
     20 C19         -7.3340   -43.5860    32.0340 ca         1 H0L       0.174000
     21 C2         -18.5060   -41.0640    25.5500 ca         1 H0L       0.150100
     22 C23        -13.3280   -43.6300    29.2430 c6         1 H0L      -0.097400
     23 C3         -17.9070   -41.7750    26.6200 ca         1 H0L      -0.186000
     24 C9         -15.4490   -43.9900    24.9890 c          1 H0L       0.591700
     25 F1         -11.6500   -42.7570    27.7910 f          1 H0L      -0.276000
     26 F2          -6.2140   -42.8720    32.2810 f          1 H0L      -0.179000
     27 O1         -19.4980   -40.1220    25.7700 os         1 H0L      -0.316100
     28 O3         -15.1870   -44.6940    24.0230 o          1 H0L      -0.518100
     29 H2         -16.7480   -42.4990    22.9470 ha         1 H0L       0.138000
     30 H3         -18.9610   -40.1390    21.1670 h1         1 H0L       0.042367
     31 H4         -17.3000   -40.5600    21.6320 h1         1 H0L       0.042367
     32 H5         -18.5430   -41.8330    21.4920 h1         1 H0L       0.042367
     33 H6         -14.7580   -45.1760    26.6480 hc         1 H0L       0.078700
     34 H7         -12.7990   -45.8850    27.5720 hc         1 H0L       0.057450
     35 H8         -11.4800   -45.1330    26.6820 hc         1 H0L       0.057450
     36 H9         -11.5410   -45.9050    32.1550 h1         1 H0L       0.057200
     37 H10        -10.6450   -46.9250    31.0440 h1         1 H0L       0.057200
     38 H11        -10.6270   -43.7260    32.9240 ha         1 H0L       0.114500
     39 H12         -6.3560   -44.9220    30.6460 ha         1 H0L       0.132500
     40 H13         -8.4150   -46.2450    30.1850 ha         1 H0L       0.114500
     41 H14        -11.5210   -43.2710    30.3910 h1         1 H0L       0.039700
     42 H15        -12.8430   -43.9930    31.3200 h1         1 H0L       0.039700
     43 H16        -16.8270   -44.4060    27.6910 hc         1 H0L       0.061200
     44 H17        -15.8700   -43.0230    28.2310 hc         1 H0L       0.061200
     45 H18        -20.7560   -39.0300    27.0300 h1         1 H0L       0.043033
     46 H19        -20.4080   -40.6840    27.5740 h1         1 H0L       0.043033
     47 H20        -19.1630   -39.4130    27.7150 h1         1 H0L       0.043033
     48 H21        -13.0710   -43.3890    25.7400 hc         1 H0L       0.068700
     49 H22        -13.8970   -42.2550    26.7580 hc         1 H0L       0.068700
     50 H23        -10.6710   -46.4680    28.6290 h1         1 H0L       0.039700
     51 H24        -10.2100   -44.7660    28.7680 h1         1 H0L       0.039700
     52 H25         -8.5590   -42.4130    33.3730 ha         1 H0L       0.132500
     53 H26        -13.7050   -42.6160    29.4280 hc         1 H0L       0.057450
     54 H27        -14.1890   -44.3080    29.3010 hc         1 H0L       0.057450
     55 H28        -18.2050   -41.6150    27.6510 ha         1 H0L       0.125000
     56 O2         -18.7070   -40.6090    23.1870 os         1 H0L      -0.321100
     57 C1         -19.9770   -39.8000    27.0880 c3         1 H0L       0.144900
@<TRIPOS>BOND
     1     1     9 1   
     2     1    13 1   
     3     1    17 1   
     4     2     3 ar  
     5     2    14 1   
     6     2    23 ar  
     7     3     4 ar  
     8     3    24 1   
     9     4     5 ar  
    10     4    29 1   
    11     5    21 ar  
    12     5    56 1   
    13     6    30 1   
    14     6    31 1   
    15     6    32 1   
    16     6    56 1   
    17     7    14 1   
    18     7    15 1   
    19     7    24 1   
    20     7    33 1   
    21     8    16 1   
    22     8    17 1   
    23     8    34 1   
    24     8    35 1   
    25     9    18 1   
    26     9    36 1   
    27     9    37 1   
    28    10    18 ar  
    29    10    19 ar  
    30    10    38 1   
    31    11    12 ar  
    32    11    20 ar  
    33    11    39 1   
    34    12    18 ar  
    35    12    40 1   
    36    13    22 1   
    37    13    41 1   
    38    13    42 1   
    39    14    43 1   
    40    14    44 1   
    41    15    16 1   
    42    15    48 1   
    43    15    49 1   
    44    16    22 1   
    45    16    25 1   
    46    17    50 1   
    47    17    51 1   
    48    19    20 ar  
    49    19    52 1   
    50    20    26 1   
    51    21    23 ar  
    52    21    27 1   
    53    22    53 1   
    54    22    54 1   
    55    23    55 1   
    56    24    28 2   
    57    27    57 1   
    58    45    57 1   
    59    46    57 1   
    60    47    57 1   
@<TRIPOS>SUBSTRUCTURE
     1 H0L         1 TEMP              0 ****  ****    0 ROOT
