@<TRIPOS>MOLECULE
H0L
   57    60     1     0     0
SMALL
abcg2


@<TRIPOS>ATOM
      1 N1         -11.8580   -45.1080    29.9720 n3         1 H0L      -0.737600
      2 C4         -16.6220   -42.2080    26.2970 ca         1 H0L      -0.039300
      3 C5         -16.3130   -42.4800    24.9810 ca         1 H0L      -0.196600
      4 C6         -17.2010   -42.1940    23.9380 ca         1 H0L      -0.103000
      5 C7         -18.4190   -41.6330    24.2460 ca         1 H0L       0.093100
      6 C8         -19.1260   -41.5760    21.9930 c3         1 H0L       0.143900
      7 C10        -14.4680   -43.2820    26.3230 c5         1 H0L      -0.166700
      8 C13        -11.9760   -44.8960    27.5450 c6         1 H0L      -0.097400
      9 C15        -11.3230   -45.7870    31.1380 c3         1 H0L       0.227100
     10 C17         -9.8420   -44.3220    32.5620 ca         1 H0L      -0.074500
     11 C20         -7.5390   -45.4300    31.4840 ca         1 H0L      -0.151500
     12 C21         -8.7910   -45.8740    31.0780 ca         1 H0L      -0.074500
     13 C22        -12.0370   -43.6810    30.1570 c6         1 H0L       0.175800
     14 C24        -15.5030   -42.5830    27.2230 c5         1 H0L      -0.030100
     15 C11        -13.0170   -42.8310    26.4770 c3         1 H0L      -0.084400
     16 C12        -12.2500   -43.4060    27.6630 c6         1 H0L       0.208000
     17 C14        -11.1740   -45.4160    28.7320 c6         1 H0L       0.175800
     18 C16         -9.9590   -45.3280    31.6050 ca         1 H0L      -0.140300
     19 C18         -8.6030   -43.8620    32.9830 ca         1 H0L      -0.151500
     20 C19         -7.4710   -44.4270    32.4320 ca         1 H0L       0.174000
     21 C2         -18.7440   -41.3480    25.6050 ca         1 H0L       0.150100
     22 C23        -12.8640   -43.1020    29.0190 c6         1 H0L      -0.097400
     23 C3         -17.8470   -41.6360    26.6220 ca         1 H0L      -0.186000
     24 C9         -14.9780   -43.0630    24.8950 c          1 H0L       0.591700
     25 F1         -10.9880   -42.7630    27.6280 f          1 H0L      -0.276000
     26 F2          -6.2650   -43.9930    32.8370 f          1 H0L      -0.179000
     27 O1         -19.9480   -40.7990    25.7880 os         1 H0L      -0.316100
     28 O3         -14.3710   -43.3430    23.8830 o          1 H0L      -0.518100
     29 H2         -16.9220   -42.4210    22.9170 ha         1 H0L       0.138000
     30 H3         -20.0090   -41.2500    21.4500 h1         1 H0L       0.042367
     31 H4         -18.2590   -41.0220    21.6220 h1         1 H0L       0.042367
     32 H5         -18.9690   -42.6420    21.8070 h1         1 H0L       0.042367
     33 H6         -14.5350   -44.3660    26.4820 hc         1 H0L       0.078700
     34 H7         -12.9270   -45.4330    27.4980 hc         1 H0L       0.057450
     35 H8         -11.4450   -45.1060    26.6130 hc         1 H0L       0.057450
     36 H9         -12.0380   -45.6570    31.9550 h1         1 H0L       0.057200
     37 H10        -11.2900   -46.8570    30.9130 h1         1 H0L       0.057200
     38 H11        -10.7360   -43.8910    32.9960 ha         1 H0L       0.114500
     39 H12         -6.6350   -45.8620    31.0740 ha         1 H0L       0.132500
     40 H13         -8.8520   -46.6690    30.3460 ha         1 H0L       0.114500
     41 H14        -11.0820   -43.1390    30.2380 h1         1 H0L       0.039700
     42 H15        -12.5650   -43.5160    31.1000 h1         1 H0L       0.039700
     43 H16        -15.8560   -43.2240    28.0330 hc         1 H0L       0.061200
     44 H17        -15.0850   -41.6900    27.6960 hc         1 H0L       0.061200
     45 H18        -21.3580   -40.0630    27.0210 h1         1 H0L       0.043033
     46 H19        -20.4020   -41.3750    27.7380 h1         1 H0L       0.043033
     47 H20        -19.7010   -39.7490    27.5710 h1         1 H0L       0.043033
     48 H21        -12.4670   -43.1030    25.5710 hc         1 H0L       0.068700
     49 H22        -12.9920   -41.7390    26.5460 hc         1 H0L       0.068700
     50 H23        -11.0760   -46.5010    28.6480 h1         1 H0L       0.039700
     51 H24        -10.1530   -45.0070    28.6960 h1         1 H0L       0.039700
     52 H25         -8.5210   -43.0830    33.7300 ha         1 H0L       0.132500
     53 H26        -12.9840   -42.0230    29.1500 hc         1 H0L       0.057450
     54 H27        -13.8610   -43.5440    29.0590 hc         1 H0L       0.057450
     55 H28        -18.0870   -41.4210    27.6560 ha         1 H0L       0.125000
     56 O2         -19.3750   -41.3120    23.3580 os         1 H0L      -0.321100
     57 C1         -20.3600   -40.4850    27.1050 c3         1 H0L       0.144900
@<TRIPOS>BOND
     1     1     9 1   
     2     1    13 1   
     3     1    17 1   
     4     2     3 ar  
     5     2    14 1   
     6     2    23 ar  
     7     3     4 ar  
     8     3    24 1   
     9     4     5 ar  
    10     4    29 1   
    11     5    21 ar  
    12     5    56 1   
    13     6    30 1   
    14     6    31 1   
    15     6    32 1   
    16     6    56 1   
    17     7    14 1   
    18     7    15 1   
    19     7    24 1   
    20     7    33 1   
    21     8    16 1   
    22     8    17 1   
    23     8    34 1   
    24     8    35 1   
    25     9    18 1   
    26     9    36 1   
    27     9    37 1   
    28    10    18 ar  
    29    10    19 ar  
    30    10    38 1   
    31    11    12 ar  
    32    11    20 ar  
    33    11    39 1   
    34    12    18 ar  
    35    12    40 1   
    36    13    22 1   
    37    13    41 1   
    38    13    42 1   
    39    14    43 1   
    40    14    44 1   
    41    15    16 1   
    42    15    48 1   
    43    15    49 1   
    44    16    22 1   
    45    16    25 1   
    46    17    50 1   
    47    17    51 1   
    48    19    20 ar  
    49    19    52 1   
    50    20    26 1   
    51    21    23 ar  
    52    21    27 1   
    53    22    53 1   
    54    22    54 1   
    55    23    55 1   
    56    24    28 2   
    57    27    57 1   
    58    45    57 1   
    59    46    57 1   
    60    47    57 1   
@<TRIPOS>SUBSTRUCTURE
     1 H0L         1 TEMP              0 ****  ****    0 ROOT
