@<TRIPOS>MOLECULE
H0M
   29    30     1     0     0
SMALL
No Charge or Current Charge


@<TRIPOS>ATOM
      1 N1          -1.4060    -0.7230     0.5980 ns         1 H0M      -0.336900
      2 C4          -3.7300    -0.9980    -0.0740 ca         1 H0M      -0.221000
      3 C5          -4.9120    -0.4270    -0.5710 ca         1 H0M      -0.043000
      4 C6          -4.9140     0.9530    -0.8270 ca         1 H0M      -0.202000
      5 C7          -3.7470     1.6990    -0.5870 ca         1 H0M       0.374900
      6 C8           1.9630    -0.7090     0.6320 ca         1 H0M      -0.033300
      7 C10          3.0820    -0.8510    -1.5330 ca         1 H0M      -0.066000
      8 C13          2.9670     0.1720     1.0800 ca         1 H0M      -0.127000
      9 C1           0.8150    -1.1030     1.5530 c3         1 H0M      -0.121100
     10 C2          -0.3850    -0.1720     1.3450 c          1 H0M       0.607100
     11 C3          -2.6190    -0.1730     0.1620 ca         1 H0M       0.490900
     12 N2          -2.6090     1.1480    -0.1090 nb         1 H0M      -0.677000
     13 O1          -0.4140     0.9550     1.8240 o          1 H0M      -0.510100
     14 C9           2.0270    -1.2170    -0.6790 ca         1 H0M      -0.134000
     15 C11          4.0810     0.0270    -1.0780 ca         1 H0M      -0.201000
     16 C12          4.0210     0.5370     0.2280 ca         1 H0M       0.141100
     17 O2           4.9860     1.3900     0.6720 oh         1 H0M      -0.531100
     18 H1          -1.2670    -1.6850     0.3200 hn         1 H0M       0.147000
     19 H2          -3.6750    -2.0630     0.1310 ha         1 H0M       0.118000
     20 H3          -5.7960    -1.0350    -0.7570 ha         1 H0M       0.118000
     21 H4          -5.8020     1.4450    -1.2150 ha         1 H0M       0.126000
     22 H5          -3.7220     2.7690    -0.7880 h4         1 H0M       0.023100
     23 H6           3.1250    -1.2480    -2.5450 ha         1 H0M       0.112000
     24 H7           2.9290     0.5760     2.0890 ha         1 H0M       0.127000
     25 H8           0.5240    -2.1380     1.3370 hc         1 H0M       0.064700
     26 H9           1.1380    -1.0300     2.5980 hc         1 H0M       0.064700
     27 H10          1.2580    -1.8970    -1.0410 ha         1 H0M       0.114000
     28 H11          4.8940     0.3050    -1.7440 ha         1 H0M       0.112000
     29 H12          5.6330     1.5290    -0.0530 ho         1 H0M       0.466000
@<TRIPOS>BOND
     1     1    10 1   
     2     1    11 1   
     3     1    18 1   
     4     2     3 ar  
     5     2    11 ar  
     6     2    19 1   
     7     3     4 ar  
     8     3    20 1   
     9     4     5 ar  
    10     4    21 1   
    11     5    12 ar  
    12     5    22 1   
    13     6     8 ar  
    14     6     9 1   
    15     6    14 ar  
    16     7    14 ar  
    17     7    15 ar  
    18     7    23 1   
    19     8    16 ar  
    20     8    24 1   
    21     9    10 1   
    22     9    25 1   
    23     9    26 1   
    24    10    13 2   
    25    11    12 ar  
    26    14    27 1   
    27    15    16 ar  
    28    15    28 1   
    29    16    17 1   
    30    17    29 1   
@<TRIPOS>SUBSTRUCTURE
     1 H0M         1 TEMP              0 ****  ****    0 ROOT
