@<TRIPOS>MOLECULE
H0M
   29    30     1     0     0
SMALL
bcc


@<TRIPOS>ATOM
      1 N1          -1.6080    -0.6920     0.3420 ns         1 H0M      -0.570400
      2 C4          -3.9790    -0.8960     0.4170 ca         1 H0M      -0.304300
      3 C5          -5.2270    -0.3500     0.2030 ca         1 H0M      -0.061000
      4 C6          -5.3240     0.9350    -0.3200 ca         1 H0M      -0.285300
      5 C7          -4.1470     1.6010    -0.6040 ca         1 H0M       0.440200
      6 C8           2.1010    -0.7310     0.2080 ca         1 H0M      -0.033300
      7 C10          3.8470    -0.7370    -1.4410 ca         1 H0M      -0.084000
      8 C13          2.8870     0.0710     1.0230 ca         1 H0M      -0.145000
      9 C1           0.7250    -1.1380     0.6480 c3         1 H0M      -0.121100
     10 C2          -0.3530    -0.1840     0.1570 c          1 H0M       0.674100
     11 C3          -2.8540    -0.1260     0.1000 ca         1 H0M       0.556200
     12 N2          -2.9370     1.0950    -0.4030 nb         1 H0M      -0.677000
     13 O1          -0.1090     0.9020    -0.3170 o          1 H0M      -0.510100
     14 C9           2.5850    -1.1420    -1.0310 ca         1 H0M      -0.152000
     15 C11          4.6410     0.0640    -0.6320 ca         1 H0M      -0.219000
     16 C12          4.1600     0.4710     0.6130 ca         1 H0M       0.141100
     17 O2           4.8780     1.2390     1.4490 oh         1 H0M      -0.492100
     18 H1          -1.6420    -1.6180     0.7420 hn         1 H0M       0.313500
     19 H2          -3.8690    -1.8950     0.8210 ha         1 H0M       0.136000
     20 H3          -6.1150    -0.9210     0.4390 ha         1 H0M       0.136000
     21 H4          -6.2800     1.4050    -0.5000 ha         1 H0M       0.144000
     22 H5          -4.1780     2.6030    -1.0180 h4         1 H0M       0.023100
     23 H6           4.2260    -1.0540    -2.4050 ha         1 H0M       0.130000
     24 H7           2.5180     0.3870     1.9920 ha         1 H0M       0.145000
     25 H8           0.4980    -2.1540     0.3140 hc         1 H0M       0.064700
     26 H9           0.6560    -1.1550     1.7440 hc         1 H0M       0.064700
     27 H10          1.9780    -1.7740    -1.6680 ha         1 H0M       0.132000
     28 H11          5.6300     0.3720    -0.9510 ha         1 H0M       0.130000
     29 H12          5.7340     1.4580     1.0470 ho         1 H0M       0.427000
@<TRIPOS>BOND
     1     1    10 1   
     2     1    11 1   
     3     1    18 1   
     4     2     3 ar  
     5     2    11 ar  
     6     2    19 1   
     7     3     4 ar  
     8     3    20 1   
     9     4     5 ar  
    10     4    21 1   
    11     5    12 ar  
    12     5    22 1   
    13     6     8 ar  
    14     6     9 1   
    15     6    14 ar  
    16     7    14 ar  
    17     7    15 ar  
    18     7    23 1   
    19     8    16 ar  
    20     8    24 1   
    21     9    10 1   
    22     9    25 1   
    23     9    26 1   
    24    10    13 2   
    25    11    12 ar  
    26    14    27 1   
    27    15    16 ar  
    28    15    28 1   
    29    16    17 1   
    30    17    29 1   
@<TRIPOS>SUBSTRUCTURE
     1 H0M         1 TEMP              0 ****  ****    0 ROOT
