@<TRIPOS>MOLECULE
H0N
   56    60     1     0     0
SMALL
No Charge or Current Charge


@<TRIPOS>ATOM
      1 CBC         -3.4820     1.2670     1.3630 ca         1 H0N      -0.091000
      2 CBB         -4.4240     1.8100     0.4720 ca         1 H0N       0.114000
      3 Cl1         -4.6240     3.5620     0.4020 cl         1 H0N      -0.167000
      4 CBA         -5.1900     0.9570    -0.3480 ca         1 H0N       0.129000
      5 Cl2         -6.3810     1.6040    -1.4770 cl         1 H0N      -0.163000
      6 CBF         -5.0080    -0.4350    -0.2710 ca         1 H0N      -0.097000
      7 CBE         -4.0650    -0.9760     0.6200 ca         1 H0N      -0.071000
      8 CBD         -3.2960    -0.1280     1.4420 ca         1 H0N      -0.113300
      9 CBG         -2.2650    -0.7180     2.3960 c3         1 H0N       0.135300
     10 NAE         -1.0350    -1.1680     1.7000 n          1 H0N      -0.287000
     11 CAD         -0.1100    -0.2140     1.2440 cc         1 H0N       0.019600
     12 CAF         -0.8640    -2.5480     1.4690 c          1 H0N       0.616600
     13 OAG         -1.6700    -3.4050     1.8070 o          1 H0N      -0.541000
     14 CAP          0.3840    -2.8540     0.7920 cc         1 H0N      -0.312600
     15 CAQ          0.8460    -4.1200     0.4390 cc         1 H0N       0.311900
     16 NAR          2.0320    -4.1020    -0.1330 nd         1 H0N      -0.509800
     17 NAS          2.3580    -2.7400    -0.1460 na         1 H0N       0.144800
     18 CAT          3.7310    -2.3100    -0.5340 c6         1 H0N       0.106300
     19 CAU          3.8660    -2.1880    -2.0750 c6         1 H0N      -0.086900
     20 CAV          5.2870    -1.7150    -2.4570 c6         1 H0N       0.159800
     21 NAW          6.3190    -2.6220    -1.8990 n7         1 H0N      -0.862400
     22 CAX          6.2340    -2.7630    -0.4250 c6         1 H0N       0.159800
     23 CAY          4.8360    -3.2630     0.0040 c6         1 H0N      -0.086900
     24 CAO          1.3040    -1.9510     0.3860 cd         1 H0N      -0.000800
     25 CAC          1.0740    -0.5190     0.5570 cd         1 H0N      -0.245400
     26 CAB          1.9090     0.6200     0.0260 c          1 H0N       0.640300
     27 OAA          2.7830     0.4820    -0.8140 o          1 H0N      -0.562100
     28 NAH          1.5830     1.8650     0.5560 ns         1 H0N      -0.149000
     29 CAI          2.0730     3.1740     0.2970 ca         1 H0N       0.014000
     30 CAJ          3.0050     3.4930    -0.7110 ca         1 H0N      -0.209000
     31 CAK          3.4140     4.8260    -0.8780 ca         1 H0N       0.358900
     32 NAL          2.9540     5.8410    -0.1130 nb         1 H0N      -0.678000
     33 CAM          2.0560     5.5400     0.8520 ca         1 H0N       0.358900
     34 CAN          1.5960     4.2340     1.0850 ca         1 H0N      -0.209000
     35 H1          -2.8970     1.9350     1.9910 ha         1 H0N       0.124000
     36 H2          -5.5980    -1.0930    -0.9030 ha         1 H0N       0.138000
     37 H3          -3.9300    -2.0550     0.6690 ha         1 H0N       0.145000
     38 H4          -1.9860     0.0350     3.1450 h1         1 H0N       0.076700
     39 H5          -2.7210    -1.5460     2.9530 h1         1 H0N       0.076700
     40 H6          -0.4770     0.7850     1.4560 h4         1 H0N       0.201000
     41 H7           0.3540    -5.0710     0.5990 h4         1 H0N       0.055100
     42 H8           3.9350    -1.3470    -0.0580 h1         1 H0N       0.061700
     43 H9           3.6640    -3.1590    -2.5460 hc         1 H0N       0.067950
     44 H10          3.1210    -1.4900    -2.4770 hc         1 H0N       0.067950
     45 H11          5.3820    -1.6800    -3.5530 h1         1 H0N       0.033950
     46 H12          5.4490    -0.6950    -2.0760 h1         1 H0N       0.033950
     47 H13          7.2500    -2.2590    -2.1460 hn         1 H0N       0.414000
     48 H15          7.0020    -3.4700    -0.0790 h1         1 H0N       0.033950
     49 H16          6.4390    -1.7910     0.0490 h1         1 H0N       0.033950
     50 H17          4.7830    -3.3240     1.0990 hc         1 H0N       0.067950
     51 H18          4.6900    -4.2820    -0.3790 hc         1 H0N       0.067950
     52 H19          0.8750     1.8390     1.2750 hn         1 H0N       0.157000
     53 H20          3.4210     2.7430    -1.3740 ha         1 H0N       0.136000
     54 H21          4.1340     5.0910    -1.6520 h4         1 H0N       0.020600
     55 H22          1.6960     6.3720     1.4560 h4         1 H0N       0.020600
     56 H23          0.8730     4.0600     1.8770 ha         1 H0N       0.136000
@<TRIPOS>BOND
     1     1     2 ar  
     2     1     8 ar  
     3     1    35 1   
     4     2     3 1   
     5     2     4 ar  
     6     4     5 1   
     7     4     6 ar  
     8     6     7 ar  
     9     6    36 1   
    10     7     8 ar  
    11     7    37 1   
    12     8     9 1   
    13     9    10 1   
    14     9    38 1   
    15     9    39 1   
    16    10    11 1   
    17    10    12 1   
    18    11    25 2   
    19    11    40 1   
    20    12    13 2   
    21    12    14 1   
    22    14    15 1   
    23    14    24 2   
    24    15    16 2   
    25    15    41 1   
    26    16    17 1   
    27    17    18 1   
    28    17    24 1   
    29    18    19 1   
    30    18    23 1   
    31    18    42 1   
    32    19    20 1   
    33    19    43 1   
    34    19    44 1   
    35    20    21 1   
    36    20    45 1   
    37    20    46 1   
    38    21    22 1   
    39    21    47 1   
    40    22    23 1   
    41    22    48 1   
    42    22    49 1   
    43    23    50 1   
    44    23    51 1   
    45    24    25 1   
    46    25    26 1   
    47    26    27 2   
    48    26    28 1   
    49    28    29 1   
    50    28    52 1   
    51    29    30 ar  
    52    29    34 ar  
    53    30    31 ar  
    54    30    53 1   
    55    31    32 ar  
    56    31    54 1   
    57    32    33 ar  
    58    33    34 ar  
    59    33    55 1   
    60    34    56 1   
@<TRIPOS>SUBSTRUCTURE
     1 H0N         1 TEMP              0 ****  ****    0 ROOT
