@<TRIPOS>MOLECULE
H0N
   56    60     1     0     0
SMALL
abcg2


@<TRIPOS>ATOM
      1 CBC         -3.5470     1.1250     0.9400 ca         1 H0N      -0.091000
      2 CBB         -4.4750     1.5000    -0.0210 ca         1 H0N       0.114000
      3 CL1         -4.6550     3.1670    -0.4130 cl         1 H0N      -0.167000
      4 CBA         -5.2490     0.5350    -0.6520 ca         1 H0N       0.129000
      5 CL2         -6.4090     0.9790    -1.8430 cl         1 H0N      -0.163000
      6 CBF         -5.0910    -0.8020    -0.3140 ca         1 H0N      -0.097000
      7 CBE         -4.1630    -1.1720     0.6430 ca         1 H0N      -0.071000
      8 CBD         -3.3790    -0.2110     1.2770 ca         1 H0N      -0.113300
      9 CBG         -2.3450    -0.6010     2.3000 c3         1 H0N       0.135300
     10 NAE         -1.1120    -1.0840     1.6730 n          1 H0N      -0.287000
     11 CAD         -0.2180    -0.1590     1.2360 cc         1 H0N       0.019600
     12 CAF         -0.9490    -2.4550     1.4660 c          1 H0N       0.616600
     13 OAG         -1.7930    -3.2600     1.8270 o          1 H0N      -0.541000
     14 CAP          0.2870    -2.7820     0.8210 cc         1 H0N      -0.312600
     15 CAQ          0.8650    -4.0230     0.4980 cc         1 H0N       0.311900
     16 NAR          2.0450    -3.8480    -0.0360 nd         1 H0N      -0.509800
     17 NAS          2.2680    -2.5250    -0.0750 na         1 H0N       0.144800
     18 CAT          3.5660    -2.0590    -0.5480 c6         1 H0N       0.106300
     19 CAU          3.6990    -2.2010    -2.0590 c6         1 H0N      -0.086900
     20 CAV          5.0720    -1.7120    -2.4980 c6         1 H0N       0.159800
     21 NAW          6.1100    -2.4490    -1.8000 n7         1 H0N      -0.862400
     22 CAX          6.0370    -2.2520    -0.3640 c6         1 H0N       0.159800
     23 CAY          4.7080    -2.7770     0.1650 c6         1 H0N      -0.086900
     24 CAO          1.2210    -1.8330     0.4140 cd         1 H0N      -0.000800
     25 CAC          0.9520    -0.4400     0.6030 cd         1 H0N      -0.245400
     26 CAB          1.7040     0.6770    -0.0250 c          1 H0N       0.640300
     27 OAA          2.0610     0.6330    -1.1860 o          1 H0N      -0.562100
     28 NAH          1.9120     1.7390     0.8020 ns         1 H0N      -0.149000
     29 CAI          2.4420     2.9850     0.4960 ca         1 H0N       0.014000
     30 CAJ          2.7730     3.4260    -0.7850 ca         1 H0N      -0.209000
     31 CAK          3.2780     4.7100    -0.9220 ca         1 H0N       0.358900
     32 NAL          3.4770     5.5580     0.0790 nb         1 H0N      -0.678000
     33 CAM          3.1590     5.1260     1.2950 ca         1 H0N       0.358900
     34 CAN          2.6460     3.8710     1.5560 ca         1 H0N      -0.209000
     35 H1          -2.9610     1.8910     1.4320 ha         1 H0N       0.124000
     36 H2          -5.7020    -1.5510    -0.7990 ha         1 H0N       0.138000
     37 H3          -4.0560    -2.2170     0.8990 ha         1 H0N       0.145000
     38 H4          -2.0880     0.2510     2.9280 h1         1 H0N       0.076700
     39 H5          -2.7240    -1.3800     2.9560 h1         1 H0N       0.076700
     40 H6          -0.5180     0.8680     1.3970 h4         1 H0N       0.201000
     41 H7           0.4620    -5.0130     0.6460 h4         1 H0N       0.055100
     42 H8           3.6340    -1.0030    -0.2890 h1         1 H0N       0.061700
     43 H9           3.5740    -3.2500    -2.3410 hc         1 H0N       0.067950
     44 H10          2.9210    -1.6250    -2.5600 hc         1 H0N       0.067950
     45 H11          5.1890    -1.8630    -3.5720 h1         1 H0N       0.033950
     46 H12          5.1320    -0.6250    -2.3200 h1         1 H0N       0.033950
     47 H13          7.0180    -2.1530    -2.1350 hn         1 H0N       0.414000
     48 H15          6.8570    -2.7920     0.1120 h1         1 H0N       0.033950
     49 H16          6.1440    -1.1930    -0.0750 h1         1 H0N       0.033950
     50 H17          4.6430    -2.6100     1.2420 hc         1 H0N       0.067950
     51 H18          4.6460    -3.8530    -0.0090 hc         1 H0N       0.067950
     52 H19          1.7040     1.5910     1.7790 hn         1 H0N       0.157000
     53 H20          2.6510     2.8110    -1.6600 ha         1 H0N       0.136000
     54 H21          3.5350     5.0650    -1.9140 h4         1 H0N       0.020600
     55 H22          3.3210     5.8150     2.1160 h4         1 H0N       0.020600
     56 H23          2.4100     3.5850     2.5730 ha         1 H0N       0.136000
@<TRIPOS>BOND
     1     1     2 ar  
     2     1     8 ar  
     3     1    35 1   
     4     2     3 1   
     5     2     4 ar  
     6     4     5 1   
     7     4     6 ar  
     8     6     7 ar  
     9     6    36 1   
    10     7     8 ar  
    11     7    37 1   
    12     8     9 1   
    13     9    10 1   
    14     9    38 1   
    15     9    39 1   
    16    10    11 1   
    17    10    12 1   
    18    11    25 2   
    19    11    40 1   
    20    12    13 2   
    21    12    14 1   
    22    14    15 1   
    23    14    24 2   
    24    15    16 2   
    25    15    41 1   
    26    16    17 1   
    27    17    18 1   
    28    17    24 1   
    29    18    19 1   
    30    18    23 1   
    31    18    42 1   
    32    19    20 1   
    33    19    43 1   
    34    19    44 1   
    35    20    21 1   
    36    20    45 1   
    37    20    46 1   
    38    21    22 1   
    39    21    47 1   
    40    22    23 1   
    41    22    48 1   
    42    22    49 1   
    43    23    50 1   
    44    23    51 1   
    45    24    25 1   
    46    25    26 1   
    47    26    27 2   
    48    26    28 1   
    49    28    29 1   
    50    28    52 1   
    51    29    30 ar  
    52    29    34 ar  
    53    30    31 ar  
    54    30    53 1   
    55    31    32 ar  
    56    31    54 1   
    57    32    33 ar  
    58    33    34 ar  
    59    33    55 1   
    60    34    56 1   
@<TRIPOS>SUBSTRUCTURE
     1 H0N         1 TEMP              0 ****  ****    0 ROOT
