@<TRIPOS>MOLECULE
H0O
   51    54     1     0     0
SMALL
No Charge or Current Charge


@<TRIPOS>ATOM
      1 C2         -30.4200    -0.2140   -10.0550 cc         1 H0O       0.273300
      2 C3         -29.6920    -0.0060    -8.8540 cc         1 H0O      -0.163000
      3 C11        -31.2030    -5.2660    -7.4740 ca         1 H0O      -0.147500
      4 C12        -30.6460    -4.1140    -8.0570 ca         1 H0O      -0.073500
      5 C13        -29.5140     2.4580    -8.4750 ca         1 H0O      -0.132000
      6 C14        -28.8750     3.5990    -8.0530 ca         1 H0O      -0.071000
      7 C15        -27.5880     3.5180    -7.5100 ca         1 H0O      -0.082000
      8 C16        -26.9740     2.2540    -7.4040 ca         1 H0O      -0.099000
      9 C17        -27.6370     1.0790    -7.8370 ca         1 H0O      -0.087300
     10 C18        -26.8700    -0.2400    -7.7630 c3         1 H0O      -0.043800
     11 C19        -30.8030     2.8860    -8.9080 cc         1 H0O      -0.195100
     12 C21        -29.7620    -1.2410    -6.5300 c3         1 H0O      -0.032800
     13 C23        -32.5530    -5.2750    -7.0570 ca         1 H0O      -0.011000
     14 C25        -32.7070    -7.6410    -6.0610 c          1 H0O       0.606100
     15 C26        -33.7780    -8.5670    -5.4650 c3         1 H0O      -0.158400
     16 C28        -34.1360    -9.7230    -6.4260 c3         1 H0O      -0.077100
     17 N1         -31.1340    -1.3220   -10.0660 nd         1 H0O      -0.514800
     18 C4         -30.0430    -1.0200    -8.0010 cd         1 H0O      -0.103300
     19 N5         -30.8710    -1.8130    -8.8050 na         1 H0O       0.220000
     20 C6         -30.3400     0.6950   -11.2510 c3         1 H0O      -0.119400
     21 C7         -28.9480     1.1700    -8.3860 ca         1 H0O       0.058000
     22 C8         -31.4260    -2.9560    -8.2320 ca         1 H0O      -0.016200
     23 C9         -32.7730    -2.9630    -7.8270 ca         1 H0O      -0.073500
     24 C10        -33.3290    -4.1150    -7.2440 ca         1 H0O      -0.147500
     25 N20        -30.8290     4.2680    -8.7460 na         1 H0O       0.009500
     26 N22        -29.6350     4.7600    -8.2080 nc         1 H0O      -0.287400
     27 O27        -31.5330    -7.9860    -6.1280 o          1 H0O      -0.570100
     28 H1         -30.5700    -6.1400    -7.3620 ha         1 H0O       0.133000
     29 H2         -29.6050    -4.1190    -8.3740 ha         1 H0O       0.131000
     30 H3         -27.0710     4.4130    -7.1720 ha         1 H0O       0.125000
     31 H4         -25.9690     2.1880    -6.9930 ha         1 H0O       0.108000
     32 H5         -27.2450    -0.9830    -8.4760 hc         1 H0O       0.040367
     33 H6         -25.8090    -0.0890    -7.9960 hc         1 H0O       0.040367
     34 H7         -26.9240    -0.6730    -6.7580 hc         1 H0O       0.040367
     35 H8         -31.6730     2.3500    -9.2690 h4         1 H0O       0.231000
     36 H9         -30.6740    -1.5210    -5.9880 hc         1 H0O       0.054033
     37 H10        -29.0290    -2.0430    -6.3850 hc         1 H0O       0.054033
     38 H11        -29.3730    -0.3360    -6.0510 hc         1 H0O       0.054033
     39 H12        -34.6930    -8.0010    -5.2540 hc         1 H0O       0.057200
     40 H13        -33.3910    -9.0030    -4.5360 hc         1 H0O       0.057200
     41 H14        -34.9000   -10.3700    -5.9800 hc         1 H0O       0.045700
     42 H15        -34.5290    -9.3330    -7.3740 hc         1 H0O       0.045700
     43 H16        -33.2540   -10.3360    -6.6450 hc         1 H0O       0.045700
     44 H17        -30.1640     0.1150   -12.1650 hc         1 H0O       0.048700
     45 H18        -31.2750     1.2510   -11.3830 hc         1 H0O       0.048700
     46 H19        -29.5200     1.4160   -11.1560 hc         1 H0O       0.048700
     47 H20        -33.3850    -2.0740    -7.9620 ha         1 H0O       0.131000
     48 H21        -34.3720    -4.1030    -6.9340 ha         1 H0O       0.133000
     49 H22        -31.6010     4.8930    -8.9640 hn         1 H0O       0.369000
     50 H23        -34.1790    -6.2760    -6.3120 hn         1 H0O       0.148000
     51 N24        -33.1860    -6.4010    -6.4630 ns         1 H0O      -0.151000
@<TRIPOS>BOND
     1     1     2 1   
     2     1    17 2   
     3     1    20 1   
     4     2    18 2   
     5     2    21 1   
     6     3     4 ar  
     7     3    13 ar  
     8     3    28 1   
     9     4    22 ar  
    10     4    29 1   
    11     5     6 ar  
    12     5    11 2   
    13     5    21 ar  
    14     6     7 ar  
    15     6    26 2   
    16     7     8 ar  
    17     7    30 1   
    18     8     9 ar  
    19     8    31 1   
    20     9    10 1   
    21     9    21 ar  
    22    10    32 1   
    23    10    33 1   
    24    10    34 1   
    25    11    25 1   
    26    11    35 1   
    27    12    18 1   
    28    12    36 1   
    29    12    37 1   
    30    12    38 1   
    31    13    24 ar  
    32    13    51 1   
    33    14    15 1   
    34    14    27 2   
    35    14    51 1   
    36    15    16 1   
    37    15    39 1   
    38    15    40 1   
    39    16    41 1   
    40    16    42 1   
    41    16    43 1   
    42    17    19 1   
    43    18    19 1   
    44    19    22 1   
    45    20    44 1   
    46    20    45 1   
    47    20    46 1   
    48    22    23 ar  
    49    23    24 ar  
    50    23    47 1   
    51    24    48 1   
    52    25    26 1   
    53    25    49 1   
    54    50    51 1   
@<TRIPOS>SUBSTRUCTURE
     1 H0O         1 TEMP              0 ****  ****    0 ROOT
