@<TRIPOS>MOLECULE
H0O
   51    54     1     0     0
SMALL
bcc


@<TRIPOS>ATOM
      1 C2         -30.1110    -0.4230    -9.8550 cc         1 H0O       0.338600
      2 C3         -29.7130     0.0830    -8.5950 cc         1 H0O      -0.228300
      3 C11        -31.6830    -5.3650    -8.0430 ca         1 H0O      -0.165500
      4 C12        -31.0920    -4.1910    -8.4820 ca         1 H0O      -0.091500
      5 C13        -29.5750     2.5700    -8.5420 ca         1 H0O      -0.132000
      6 C14        -28.8950     3.7930    -8.2970 ca         1 H0O      -0.071000
      7 C15        -27.5650     3.7730    -7.8200 ca         1 H0O      -0.100000
      8 C16        -26.9860     2.5530    -7.6220 ca         1 H0O      -0.117000
      9 C17        -27.6540     1.3130    -7.8720 ca         1 H0O      -0.087300
     10 C18        -26.8900     0.0450    -7.6190 c3         1 H0O      -0.043800
     11 C19        -30.8350     2.9670    -8.9750 cc         1 H0O      -0.145100
     12 C21        -30.0490    -0.8480    -6.1980 c3         1 H0O      -0.032800
     13 C23        -32.6330    -5.3300    -7.0190 ca         1 H0O       0.081600
     14 C25        -33.0840    -7.7710    -6.7790 c          1 H0O       0.673100
     15 C26        -33.9470    -8.6940    -5.9420 c3         1 H0O      -0.158400
     16 C28        -33.9850   -10.1200    -6.4590 c3         1 H0O      -0.077100
     17 N1         -30.7730    -1.5520    -9.7180 nd         1 H0O      -0.514800
     18 C4         -30.1890    -0.8290    -7.6770 cd         1 H0O      -0.052600
     19 N5         -30.8250    -1.7860    -8.3980 na         1 H0O       0.169300
     20 C6         -29.8340     0.1610   -11.1960 c3         1 H0O      -0.119400
     21 C7         -28.9540     1.3110    -8.3260 ca         1 H0O       0.058000
     22 C8         -31.4370    -2.9670    -7.9270 ca         1 H0O      -0.016200
     23 C9         -32.3950    -2.9220    -6.9230 ca         1 H0O      -0.091500
     24 C10        -32.9760    -4.0910    -6.4700 ca         1 H0O      -0.165500
     25 N20        -30.8130     4.3030    -8.9620 na         1 H0O       0.059800
     26 N22        -29.6730     4.8460    -8.5620 nc         1 H0O      -0.287400
     27 O27        -32.2840    -8.1770    -7.6000 o          1 H0O      -0.570100
     28 H1         -31.3910    -6.2960    -8.4980 ha         1 H0O       0.151000
     29 H2         -30.3500    -4.2360    -9.2680 ha         1 H0O       0.149000
     30 H3         -27.0270     4.6910    -7.6230 ha         1 H0O       0.143000
     31 H4         -25.9650     2.5100    -7.2640 ha         1 H0O       0.126000
     32 H5         -27.2620    -0.7850    -8.2170 hc         1 H0O       0.040367
     33 H6         -25.8320     0.1770    -7.8470 hc         1 H0O       0.040367
     34 H7         -26.9530    -0.2580    -6.5710 hc         1 H0O       0.040367
     35 H8         -31.7090     2.4120    -9.2770 h4         1 H0O       0.181000
     36 H9         -30.9810    -0.5940    -5.6920 hc         1 H0O       0.054033
     37 H10        -29.7300    -1.8240    -5.8340 hc         1 H0O       0.054033
     38 H11        -29.3050    -0.1140    -5.8950 hc         1 H0O       0.054033
     39 H12        -34.9580    -8.2830    -5.8750 hc         1 H0O       0.057200
     40 H13        -33.5530    -8.6740    -4.9200 hc         1 H0O       0.057200
     41 H14        -34.6090   -10.7320    -5.8100 hc         1 H0O       0.045700
     42 H15        -34.4030   -10.1710    -7.4650 hc         1 H0O       0.045700
     43 H16        -32.9930   -10.5670    -6.4840 hc         1 H0O       0.045700
     44 H17        -30.2090    -0.4870   -11.9860 hc         1 H0O       0.048700
     45 H18        -30.3010     1.1410   -11.3120 hc         1 H0O       0.048700
     46 H19        -28.7630     0.2980   -11.3480 hc         1 H0O       0.048700
     47 H20        -32.7060    -1.9770    -6.4980 ha         1 H0O       0.149000
     48 H21        -33.7200    -4.0380    -5.6830 ha         1 H0O       0.151000
     49 H22        -31.5780     4.9070    -9.2250 hn         1 H0O       0.318700
     50 H23        -33.9770    -6.2510    -5.8000 hn         1 H0O       0.314500
     51 N24        -33.2820    -6.4510    -6.5040 ns         1 H0O      -0.477100
@<TRIPOS>BOND
     1     1     2 1   
     2     1    17 2   
     3     1    20 1   
     4     2    18 2   
     5     2    21 1   
     6     3     4 ar  
     7     3    13 ar  
     8     3    28 1   
     9     4    22 ar  
    10     4    29 1   
    11     5     6 ar  
    12     5    11 2   
    13     5    21 ar  
    14     6     7 ar  
    15     6    26 2   
    16     7     8 ar  
    17     7    30 1   
    18     8     9 ar  
    19     8    31 1   
    20     9    10 1   
    21     9    21 ar  
    22    10    32 1   
    23    10    33 1   
    24    10    34 1   
    25    11    25 1   
    26    11    35 1   
    27    12    18 1   
    28    12    36 1   
    29    12    37 1   
    30    12    38 1   
    31    13    24 ar  
    32    13    51 1   
    33    14    15 1   
    34    14    27 2   
    35    14    51 1   
    36    15    16 1   
    37    15    39 1   
    38    15    40 1   
    39    16    41 1   
    40    16    42 1   
    41    16    43 1   
    42    17    19 1   
    43    18    19 1   
    44    19    22 1   
    45    20    44 1   
    46    20    45 1   
    47    20    46 1   
    48    22    23 ar  
    49    23    24 ar  
    50    23    47 1   
    51    24    48 1   
    52    25    26 1   
    53    25    49 1   
    54    50    51 1   
@<TRIPOS>SUBSTRUCTURE
     1 H0O         1 TEMP              0 ****  ****    0 ROOT
