@<TRIPOS>MOLECULE
H0P
   29    30     1     0     0
SMALL
No Charge or Current Charge


@<TRIPOS>ATOM
      1 N1          -1.2240    -0.6810     0.4160 ns         1 H0P      -0.148000
      2 C4          -3.0400     0.0010    -1.1680 ca         1 H0P      -0.099000
      3 C5          -4.2470     0.7010    -1.3380 ca         1 H0P      -0.136000
      4 C6          -4.8230     1.3620    -0.2410 ca         1 H0P       0.303900
      5 C7          -3.1020     0.6850     1.1540 ca         1 H0P       0.282900
      6 C8           2.0960    -1.0970     0.1240 ca         1 H0P      -0.033300
      7 C10          4.0700    -0.5810    -1.2160 ca         1 H0P      -0.072000
      8 C13          2.3880    -0.0010     0.9600 ca         1 H0P      -0.196000
      9 C1           0.8710    -1.9640     0.3930 c3         1 H0P      -0.115100
     10 C2          -0.3470    -1.4240    -0.3660 c          1 H0P       0.606100
     11 C3          -2.4450    -0.0100     0.1140 ca         1 H0P      -0.071000
     12 N2          -4.2650     1.3590     0.9910 nb         1 H0P      -0.642000
     13 O1          -0.5020    -1.6360    -1.5630 o          1 H0P      -0.560100
     14 C9           2.9420    -1.3810    -0.9650 ca         1 H0P      -0.125000
     15 C11          4.3550     0.5100    -0.3780 ca         1 H0P      -0.137000
     16 C12          3.5150     0.7980     0.7090 ca         1 H0P       0.142100
     17 O2           3.7970     1.8570     1.5180 oh         1 H0P      -0.533100
     18 H1          -0.9410    -0.5980     1.3850 hn         1 H0P       0.151000
     19 H2          -2.5990    -0.5090    -2.0190 ha         1 H0P       0.153000
     20 H3          -4.7370     0.7340    -2.3080 ha         1 H0P       0.125000
     21 H4          -5.7590     1.9100    -0.3500 h4         1 H0P       0.022100
     22 H5          -2.6800     0.7030     2.1580 h4         1 H0P       0.011100
     23 H6           4.7200    -0.8040    -2.0590 ha         1 H0P       0.117000
     24 H7           1.7380     0.2250     1.8020 ha         1 H0P       0.109000
     25 H8           1.0670    -2.9890     0.0590 hc         1 H0P       0.067200
     26 H9           0.6660    -1.9670     1.4700 hc         1 H0P       0.067200
     27 H10          2.7260    -2.2220    -1.6200 ha         1 H0P       0.116000
     28 H11          5.2260     1.1310    -0.5700 ha         1 H0P       0.130000
     29 H12          3.1120     1.9010     2.2190 ho         1 H0P       0.464000
@<TRIPOS>BOND
     1     1    10 1   
     2     1    11 1   
     3     1    18 1   
     4     2     3 ar  
     5     2    11 ar  
     6     2    19 1   
     7     3     4 ar  
     8     3    20 1   
     9     4    12 ar  
    10     4    21 1   
    11     5    11 ar  
    12     5    12 ar  
    13     5    22 1   
    14     6     8 ar  
    15     6     9 1   
    16     6    14 ar  
    17     7    14 ar  
    18     7    15 ar  
    19     7    23 1   
    20     8    16 ar  
    21     8    24 1   
    22     9    10 1   
    23     9    25 1   
    24     9    26 1   
    25    10    13 2   
    26    14    27 1   
    27    15    16 ar  
    28    15    28 1   
    29    16    17 1   
    30    17    29 1   
@<TRIPOS>SUBSTRUCTURE
     1 H0P         1 TEMP              0 ****  ****    0 ROOT
