@<TRIPOS>MOLECULE
H0P
   29    30     1     0     0
SMALL
bcc


@<TRIPOS>ATOM
      1 N1          -1.4650    -0.5670     0.6150 ns         1 H0P      -0.474100
      2 C4          -2.9710     0.5030    -1.0370 ca         1 H0P      -0.117000
      3 C5          -4.2690     0.9150    -1.2990 ca         1 H0P      -0.219300
      4 C6          -5.2570     0.7200    -0.3490 ca         1 H0P       0.369200
      5 C7          -3.7780    -0.2510     1.0790 ca         1 H0P       0.348200
      6 C8           2.1880    -0.8400     0.2360 ca         1 H0P      -0.033300
      7 C10          4.1240    -1.1550    -1.1510 ca         1 H0P      -0.090000
      8 C13          2.7540     0.3280     0.7390 ca         1 H0P      -0.214000
      9 C1           0.8330    -1.2700     0.7160 c3         1 H0P      -0.115100
     10 C2          -0.2890    -0.6080    -0.0660 c          1 H0P       0.673100
     11 C3          -2.7080    -0.1020     0.1900 ca         1 H0P      -0.043700
     12 N2          -5.0110     0.1450     0.8240 nb         1 H0P      -0.642000
     13 O1          -0.1440    -0.1870    -1.1960 o          1 H0P      -0.560100
     14 C9           2.8770    -1.5830    -0.7130 ca         1 H0P      -0.143000
     15 C11          4.6930     0.0070    -0.6550 ca         1 H0P      -0.155000
     16 C12          4.0030     0.7550     0.2970 ca         1 H0P       0.142100
     17 O2           4.5870     1.8790     0.7580 oh         1 H0P      -0.494100
     18 H1          -1.4500    -0.9470     1.5500 hn         1 H0P       0.317500
     19 H2          -2.1970     0.6560    -1.7710 ha         1 H0P       0.171000
     20 H3          -4.5080     1.3890    -2.2410 ha         1 H0P       0.143000
     21 H4          -6.2770     1.0360    -0.5360 h4         1 H0P       0.022100
     22 H5          -3.6070    -0.7190     2.0460 h4         1 H0P       0.011100
     23 H6           4.6650    -1.7350    -1.8880 ha         1 H0P       0.135000
     24 H7           2.2170     0.9080     1.4820 ha         1 H0P       0.127000
     25 H8           0.7140    -2.3510     0.5960 hc         1 H0P       0.067200
     26 H9           0.7190    -1.0670     1.7830 hc         1 H0P       0.067200
     27 H10          2.4460    -2.4950    -1.1070 ha         1 H0P       0.134000
     28 H11          5.6670     0.3350    -0.9970 ha         1 H0P       0.148000
     29 H12          4.0200     2.3120     1.4050 ho         1 H0P       0.425000
@<TRIPOS>BOND
     1     1    10 1   
     2     1    11 1   
     3     1    18 1   
     4     2     3 ar  
     5     2    11 ar  
     6     2    19 1   
     7     3     4 ar  
     8     3    20 1   
     9     4    12 ar  
    10     4    21 1   
    11     5    11 ar  
    12     5    12 ar  
    13     5    22 1   
    14     6     8 ar  
    15     6     9 1   
    16     6    14 ar  
    17     7    14 ar  
    18     7    15 ar  
    19     7    23 1   
    20     8    16 ar  
    21     8    24 1   
    22     9    10 1   
    23     9    25 1   
    24     9    26 1   
    25    10    13 2   
    26    14    27 1   
    27    15    16 ar  
    28    15    28 1   
    29    16    17 1   
    30    17    29 1   
@<TRIPOS>SUBSTRUCTURE
     1 H0P         1 TEMP              0 ****  ****    0 ROOT
