@<TRIPOS>MOLECULE
H0Q
   45    48     1     0     0
SMALL
abcg2


@<TRIPOS>ATOM
      1 CAM         30.6700    -6.2690    43.4110 c3         1 H0Q       0.078900
      2 NAN         29.9420    -5.6200    42.3380 na         1 H0Q       0.120800
      3 CAO         30.4450    -4.7660    41.4120 cc         1 H0Q      -0.165000
      4 NAR         28.6190    -5.7980    42.2090 nc         1 H0Q      -0.509800
      5 CAQ         28.2590    -5.0440    41.1710 cd         1 H0Q       0.209900
      6 CAP         29.3710    -4.3700    40.6310 cd         1 H0Q      -0.073400
      7 NBB         29.3290    -3.5060    39.5340 ns         1 H0Q      -0.373100
      8 CAB         30.3930    -2.8650    38.9880 c          1 H0Q       0.625300
      9 OAA         31.5450    -3.0280    39.3920 o          1 H0Q      -0.592100
     10 CAC         30.0640    -1.9330    37.8700 cc         1 H0Q      -0.214400
     11 CAD         29.0380    -1.0600    38.0160 cd         1 H0Q      -0.014400
     12 CAU         30.8500    -1.8880    36.6600 ca         1 H0Q       0.032200
     13 CAV         31.9160    -2.7690    36.3950 ca         1 H0Q      -0.109000
     14 CAW         32.6080    -2.6960    35.2040 ca         1 H0Q      -0.075000
     15 CAX         32.2670    -1.7450    34.2340 ca         1 H0Q      -0.127000
     16 CAY         31.2230    -0.8760    34.4700 ca         1 H0Q      -0.048000
     17 CAT         30.5060    -0.9360    35.6740 ca         1 H0Q      -0.167600
     18 CAS         29.4010     0.0030    35.8720 c          1 H0Q       0.569600
     19 OBA         29.0690     0.8650    35.0590 o          1 H0Q      -0.536000
     20 NAE         28.7120    -0.1240    37.0720 n          1 H0Q      -0.295000
     21 CAF         27.6360     0.8310    37.3430 c3         1 H0Q       0.144300
     22 CAG         28.1390     2.2030    37.7360 ca         1 H0Q      -0.094300
     23 CAZ         29.3480     2.3640    38.4070 ca         1 H0Q      -0.092000
     24 CAK         29.7560     3.6370    38.7790 ca         1 H0Q       0.127000
     25 CL          31.2870     3.8270    39.6120 cl         1 H0Q      -0.208000
     26 CAJ         28.9880     4.7600    38.5080 ca         1 H0Q      -0.096000
     27 CAI         27.7800     4.5900    37.8390 ca         1 H0Q      -0.098000
     28 CAH         27.3600     3.3230    37.4520 ca         1 H0Q      -0.094000
     29 H1          30.4270    -7.3300    43.4240 h1         1 H0Q       0.057700
     30 H2          31.7350    -6.1420    43.2330 h1         1 H0Q       0.057700
     31 H3          30.4070    -5.8250    44.3710 h1         1 H0Q       0.057700
     32 H4          31.4880    -4.5160    41.3720 h4         1 H0Q       0.181000
     33 H5          27.2320    -5.0080    40.8420 h4         1 H0Q       0.036100
     34 H6          28.4300    -3.3900    39.0920 hn         1 H0Q       0.322500
     35 H7          28.4310    -1.0340    38.9100 h4         1 H0Q       0.203000
     36 H8          32.1910    -3.5040    37.1370 ha         1 H0Q       0.139000
     37 H9          33.4240    -3.3840    35.0190 ha         1 H0Q       0.118000
     38 H10         32.8180    -1.6950    33.3040 ha         1 H0Q       0.120000
     39 H11         30.9360    -0.1380    33.7350 ha         1 H0Q       0.137000
     40 H12         27.0150     0.9110    36.4540 h1         1 H0Q       0.070700
     41 H13         27.0270     0.4120    38.1440 h1         1 H0Q       0.070700
     42 H14         29.9780     1.5140    38.6330 ha         1 H0Q       0.133000
     43 H15         29.3270     5.7420    38.8060 ha         1 H0Q       0.132000
     44 H16         27.1710     5.4550    37.6120 ha         1 H0Q       0.121000
     45 H17         26.4240     3.2030    36.9200 ha         1 H0Q       0.118000
@<TRIPOS>BOND
     1     1     2 1   
     2     1    29 1   
     3     1    30 1   
     4     1    31 1   
     5     2     3 1   
     6     2     4 1   
     7     3     6 2   
     8     3    32 1   
     9     4     5 2   
    10     5     6 1   
    11     5    33 1   
    12     6     7 1   
    13     7     8 1   
    14     7    34 1   
    15     8     9 2   
    16     8    10 1   
    17    10    11 2   
    18    10    12 1   
    19    11    20 1   
    20    11    35 1   
    21    12    13 ar  
    22    12    17 ar  
    23    13    14 ar  
    24    13    36 1   
    25    14    15 ar  
    26    14    37 1   
    27    15    16 ar  
    28    15    38 1   
    29    16    17 ar  
    30    16    39 1   
    31    17    18 1   
    32    18    19 2   
    33    18    20 1   
    34    20    21 1   
    35    21    22 1   
    36    21    40 1   
    37    21    41 1   
    38    22    23 ar  
    39    22    28 ar  
    40    23    24 ar  
    41    23    42 1   
    42    24    25 1   
    43    24    26 ar  
    44    26    27 ar  
    45    26    43 1   
    46    27    28 ar  
    47    27    44 1   
    48    28    45 1   
@<TRIPOS>SUBSTRUCTURE
     1 H0Q         1 TEMP              0 ****  ****    0 ROOT
