@<TRIPOS>MOLECULE
H0Q
   45    48     1     0     0
SMALL
No Charge or Current Charge


@<TRIPOS>ATOM
      1 CAM         30.9170    -5.5900    43.5510 c3         1 H0Q       0.078900
      2 NAN         30.1970    -4.7590    42.5750 na         1 H0Q       0.120800
      3 CAO         30.6720    -4.3540    41.3300 cc         1 H0Q      -0.165000
      4 NAR         28.9210    -4.3050    42.8650 nc         1 H0Q      -0.509800
      5 CAQ         28.6050    -3.6120    41.7860 cd         1 H0Q       0.209900
      6 CAP         29.6410    -3.6170    40.8260 cd         1 H0Q      -0.073400
      7 NBB         29.5710    -2.9620    39.5990 ns         1 H0Q      -0.373100
      8 CAB         30.5090    -2.9200    38.5740 c          1 H0Q       0.625300
      9 OAA         31.5570    -3.5440    38.6560 o          1 H0Q      -0.592100
     10 CAC         30.1280    -2.0510    37.4020 cc         1 H0Q      -0.214400
     11 CAD         29.0710    -1.1500    37.5300 cd         1 H0Q      -0.014400
     12 CAU         30.8630    -2.0180    36.1080 ca         1 H0Q       0.032200
     13 CAV         31.8320    -2.9950    35.7580 ca         1 H0Q      -0.109000
     14 CAW         32.5340    -2.9350    34.5440 ca         1 H0Q      -0.075000
     15 CAX         32.2740    -1.9060    33.6350 ca         1 H0Q      -0.127000
     16 CAY         31.2890    -0.9560    33.9320 ca         1 H0Q      -0.048000
     17 CAT         30.5740    -1.0150    35.1500 ca         1 H0Q      -0.167600
     18 CAS         29.4710    -0.0300    35.3920 c          1 H0Q       0.569600
     19 OBA         29.2230     0.8600    34.5860 o          1 H0Q      -0.536000
     20 NAE         28.7310    -0.1920    36.5770 n          1 H0Q      -0.295000
     21 CAF         27.6080     0.7390    36.8570 c3         1 H0Q       0.144300
     22 CAG         27.9670     1.8100    37.8800 ca         1 H0Q      -0.094300
     23 CAZ         27.4730     1.7350    39.1980 ca         1 H0Q      -0.092000
     24 CAK         27.8170     2.7200    40.1390 ca         1 H0Q       0.127000
     25 Cl          27.1970     2.6150    41.7820 cl         1 H0Q      -0.208000
     26 CAJ         28.6540     3.7860    39.7730 ca         1 H0Q      -0.096000
     27 CAI         29.1490     3.8680    38.4600 ca         1 H0Q      -0.098000
     28 CAH         28.8070     2.8830    37.5170 ca         1 H0Q      -0.094000
     29 H1          30.3470    -6.5060    43.7450 h1         1 H0Q       0.057700
     30 H2          31.9040    -5.8560    43.1550 h1         1 H0Q       0.057700
     31 H3          31.0420    -5.0320    44.4870 h1         1 H0Q       0.057700
     32 H4          31.6490    -4.6180    40.9460 h4         1 H0Q       0.181000
     33 H5          27.6390    -3.1270    41.7280 h4         1 H0Q       0.036100
     34 H6          28.7200    -2.4620    39.3890 hn         1 H0Q       0.322500
     35 H7          28.4540    -1.0450    38.4170 h4         1 H0Q       0.203000
     36 H8          32.0550    -3.8340    36.4040 ha         1 H0Q       0.139000
     37 H9          33.2770    -3.6930    34.3080 ha         1 H0Q       0.118000
     38 H10         32.8150    -1.8570    32.6930 ha         1 H0Q       0.120000
     39 H11         31.0730    -0.1800    33.2000 ha         1 H0Q       0.137000
     40 H12         27.2640     1.2240    35.9350 h1         1 H0Q       0.070700
     41 H13         26.7560     0.1530    37.2260 h1         1 H0Q       0.070700
     42 H14         26.8230     0.9160    39.4970 ha         1 H0Q       0.133000
     43 H15         28.9170     4.5460    40.5050 ha         1 H0Q       0.132000
     44 H16         29.7980     4.6930    38.1740 ha         1 H0Q       0.121000
     45 H17         29.1960     2.9530    36.5040 ha         1 H0Q       0.118000
@<TRIPOS>BOND
     1     1     2 1   
     2     1    29 1   
     3     1    30 1   
     4     1    31 1   
     5     2     3 1   
     6     2     4 1   
     7     3     6 2   
     8     3    32 1   
     9     4     5 2   
    10     5     6 1   
    11     5    33 1   
    12     6     7 1   
    13     7     8 1   
    14     7    34 1   
    15     8     9 2   
    16     8    10 1   
    17    10    11 2   
    18    10    12 1   
    19    11    20 1   
    20    11    35 1   
    21    12    13 ar  
    22    12    17 ar  
    23    13    14 ar  
    24    13    36 1   
    25    14    15 ar  
    26    14    37 1   
    27    15    16 ar  
    28    15    38 1   
    29    16    17 ar  
    30    16    39 1   
    31    17    18 1   
    32    18    19 2   
    33    18    20 1   
    34    20    21 1   
    35    21    22 1   
    36    21    40 1   
    37    21    41 1   
    38    22    23 ar  
    39    22    28 ar  
    40    23    24 ar  
    41    23    42 1   
    42    24    25 1   
    43    24    26 ar  
    44    26    27 ar  
    45    26    43 1   
    46    27    28 ar  
    47    27    44 1   
    48    28    45 1   
@<TRIPOS>SUBSTRUCTURE
     1 H0Q         1 TEMP              0 ****  ****    0 ROOT
