@<TRIPOS>MOLECULE
H0R
   57    60     1     0     0
SMALL
No Charge or Current Charge


@<TRIPOS>ATOM
      1 C11         15.1430    42.7730    24.7960 c          1 H0R       0.592700
      2 C1          20.7350    40.3040    27.0500 c3         1 H0R       0.144900
      3 C3          18.9040    40.8760    25.4860 ca         1 H0R       0.148100
      4 C4          18.1830    41.5630    26.4960 ca         1 H0R      -0.185000
      5 C5          16.9500    42.1480    26.1780 ca         1 H0R      -0.040300
      6 C6          16.4390    42.0590    24.8980 ca         1 H0R      -0.196600
      7 C7          17.1340    41.4050    23.8680 ca         1 H0R      -0.103000
      8 C8          18.3800    40.7990    24.1660 ca         1 H0R       0.092100
      9 C10         18.6640    40.0010    21.8390 c3         1 H0R       0.143900
     10 C13         14.7140    42.9240    26.2860 c5         1 H0R      -0.167700
     11 C14         13.7050    44.0910    26.5270 c3         1 H0R      -0.084400
     12 C15         12.9400    44.1730    27.8900 c6         1 H0R       0.217000
     13 C17         11.8610    45.2850    27.8630 c6         1 H0R      -0.098900
     14 C18         11.0530    45.3850    29.1870 c6         1 H0R       0.176800
     15 C21          9.6500    44.6850    31.7410 ca         1 H0R      -0.123300
     16 C22          9.3490    43.3090    31.7990 ca         1 H0R      -0.060000
     17 C23          8.0140    42.8750    31.8780 ca         1 H0R      -0.130000
     18 C24          6.9670    43.8120    31.8980 ca         1 H0R      -0.082000
     19 C25          7.2590    45.1850    31.8380 ca         1 H0R      -0.156000
     20 C26          8.5920    45.6190    31.7600 ca         1 H0R       0.171000
     21 C28         13.2010    45.0360    30.3400 c6         1 H0R       0.176800
     22 C29         13.8820    44.3590    29.1190 c6         1 H0R      -0.098900
     23 C30         16.0640    42.9500    27.1060 c5         1 H0R      -0.027100
     24 F16         12.2700    42.9370    28.0280 f          1 H0R      -0.262000
     25 F27          8.8450    46.9460    31.6990 f          1 H0R      -0.186000
     26 N19         11.7430    44.7790    30.3630 n3         1 H0R      -0.723600
     27 O2          20.1250    40.2770    25.7480 os         1 H0R      -0.316100
     28 O9          19.1140    40.1290    23.2000 os         1 H0R      -0.321100
     29 O12         14.7430    43.3510    23.7930 o          1 H0R      -0.519100
     30 H1          21.6930    39.7690    27.0320 h1         1 H0R       0.043033
     31 H2          20.9290    41.3350    27.3700 h1         1 H0R       0.043033
     32 H3          20.0890    39.8190    27.7930 h1         1 H0R       0.043033
     33 H4          18.5610    41.6520    27.5100 ha         1 H0R       0.124000
     34 H5          16.7030    41.3730    22.8710 ha         1 H0R       0.138000
     35 H6          19.3960    39.4350    21.2500 h1         1 H0R       0.042033
     36 H7          17.7060    39.4680    21.7930 h1         1 H0R       0.042033
     37 H8          18.5430    40.9870    21.3730 h1         1 H0R       0.042033
     38 H9          14.2320    41.9730    26.5400 hc         1 H0R       0.092700
     39 H10         14.2230    45.0420    26.3540 hc         1 H0R       0.062200
     40 H11         12.9470    44.0380    25.7350 hc         1 H0R       0.062200
     41 H12         12.3540    46.2500    27.6800 hc         1 H0R       0.053200
     42 H13         11.1690    45.1340    27.0240 hc         1 H0R       0.053200
     43 H14         10.8270    46.4450    29.3740 h1         1 H0R       0.037200
     44 H15         10.0860    44.8810    29.0400 h1         1 H0R       0.037200
     45 H16         11.6520    44.6520    32.4770 h1         1 H0R       0.042700
     46 H17         11.1790    46.2150    31.8230 h1         1 H0R       0.042700
     47 H18         10.1540    42.5770    31.7780 ha         1 H0R       0.126000
     48 H19          7.7910    41.8110    31.9210 ha         1 H0R       0.119000
     49 H20          5.9340    43.4750    31.9590 ha         1 H0R       0.116000
     50 H21          6.4530    45.9150    31.8520 ha         1 H0R       0.130000
     51 H22         13.6810    44.6670    31.2590 h1         1 H0R       0.037200
     52 H23         13.3840    46.1200    30.2980 h1         1 H0R       0.037200
     53 H24         14.2650    43.3790    29.4300 hc         1 H0R       0.053200
     54 H25         14.7580    44.9580    28.8410 hc         1 H0R       0.053200
     55 H26         15.9690    42.4900    28.0960 hc         1 H0R       0.059200
     56 H27         16.4490    43.9680    27.2390 hc         1 H0R       0.059200
     57 C20         11.1060    45.1330    31.6530 c3         1 H0R       0.226100
@<TRIPOS>BOND
     1     1     6 1   
     2     1    10 1   
     3     1    29 2   
     4     2    27 1   
     5     2    30 1   
     6     2    31 1   
     7     2    32 1   
     8     3     4 ar  
     9     3     8 ar  
    10     3    27 1   
    11     4     5 ar  
    12     4    33 1   
    13     5     6 ar  
    14     5    23 1   
    15     6     7 ar  
    16     7     8 ar  
    17     7    34 1   
    18     8    28 1   
    19     9    28 1   
    20     9    35 1   
    21     9    36 1   
    22     9    37 1   
    23    10    11 1   
    24    10    23 1   
    25    10    38 1   
    26    11    12 1   
    27    11    39 1   
    28    11    40 1   
    29    12    13 1   
    30    12    22 1   
    31    12    24 1   
    32    13    14 1   
    33    13    41 1   
    34    13    42 1   
    35    14    26 1   
    36    14    43 1   
    37    14    44 1   
    38    15    16 ar  
    39    15    20 ar  
    40    15    57 1   
    41    16    17 ar  
    42    16    47 1   
    43    17    18 ar  
    44    17    48 1   
    45    18    19 ar  
    46    18    49 1   
    47    19    20 ar  
    48    19    50 1   
    49    20    25 1   
    50    21    22 1   
    51    21    26 1   
    52    21    51 1   
    53    21    52 1   
    54    22    53 1   
    55    22    54 1   
    56    23    55 1   
    57    23    56 1   
    58    26    57 1   
    59    45    57 1   
    60    46    57 1   
@<TRIPOS>SUBSTRUCTURE
     1 H0R         1 TEMP              0 ****  ****    0 ROOT
