@<TRIPOS>MOLECULE
H0R
   57    60     1     0     0
SMALL
bcc


@<TRIPOS>ATOM
      1 C11         14.9700    42.4970    25.0090 c          1 H0R       0.592700
      2 C1          20.6730    40.4090    26.9020 c3         1 H0R       0.121700
      3 C3          18.8430    40.9500    25.5030 ca         1 H0R       0.148100
      4 C4          18.1060    41.4790    26.5530 ca         1 H0R      -0.203000
      5 C5          16.8320    41.9750    26.2980 ca         1 H0R      -0.040300
      6 C6          16.3170    41.9330    25.0200 ca         1 H0R      -0.196600
      7 C7          17.0450    41.4140    23.9440 ca         1 H0R      -0.121000
      8 C8          18.3080    40.9190    24.1810 ca         1 H0R       0.092100
      9 C10         18.6440    40.3040    21.9270 c3         1 H0R       0.120700
     10 C13         14.5690    42.7580    26.4610 c5         1 H0R      -0.167700
     11 C14         13.7730    44.0490    26.6210 c3         1 H0R      -0.084400
     12 C15         12.9830    44.1820    27.9190 c6         1 H0R       0.198300
     13 C17         12.0720    45.3960    27.8890 c6         1 H0R      -0.098900
     14 C18         11.1580    45.4690    29.1160 c6         1 H0R       0.176800
     15 C21          9.7230    44.7620    31.6110 ca         1 H0R      -0.123300
     16 C22          9.4990    43.3920    31.7430 ca         1 H0R      -0.078000
     17 C23          8.2190    42.8700    31.8330 ca         1 H0R      -0.148000
     18 C24          7.1210    43.7210    31.7880 ca         1 H0R      -0.100000
     19 C25          7.3110    45.0870    31.6500 ca         1 H0R      -0.174000
     20 C26          8.6030    45.5750    31.5630 ca         1 H0R       0.135900
     21 C28         13.2060    45.0560    30.2980 c6         1 H0R       0.176800
     22 C29         13.8520    44.2410    29.1770 c6         1 H0R      -0.098900
     23 C30         15.8790    42.6260    27.2580 c5         1 H0R      -0.027100
     24 F16         12.1520    43.0440    28.0050 f          1 H0R      -0.243300
     25 F27          8.7620    46.9030    31.4190 f          1 H0R      -0.150900
     26 N19         11.7720    44.8620    30.2890 n3         1 H0R      -0.723600
     27 O2          20.0720    40.4410    25.6210 os         1 H0R      -0.292900
     28 O9          19.1210    40.3840    23.2540 os         1 H0R      -0.297900
     29 O12         14.2790    42.7020    24.0340 o          1 H0R      -0.519100
     30 H1          21.6490    39.9500    26.7710 h1         1 H0R       0.043033
     31 H2          20.8050    41.4120    27.3140 h1         1 H0R       0.043033
     32 H3          20.0910    39.8090    27.6070 h1         1 H0R       0.043033
     33 H4          18.5080    41.5100    27.5570 ha         1 H0R       0.142000
     34 H5          16.6060    41.4000    22.9550 ha         1 H0R       0.156000
     35 H6          19.4330    39.8390    21.3420 h1         1 H0R       0.042033
     36 H7          17.7420    39.6900    21.8550 h1         1 H0R       0.042033
     37 H8          18.4300    41.2920    21.5100 h1         1 H0R       0.042033
     38 H9          13.9210    41.9110    26.7220 hc         1 H0R       0.092700
     39 H10         14.4430    44.9090    26.5310 hc         1 H0R       0.062200
     40 H11         13.0650    44.1210    25.7910 hc         1 H0R       0.062200
     41 H12         12.7100    46.2820    27.8430 hc         1 H0R       0.053200
     42 H13         11.4680    45.4050    26.9800 hc         1 H0R       0.053200
     43 H14         10.9130    46.5280    29.2960 h1         1 H0R       0.037200
     44 H15         10.2130    44.9630    28.9070 h1         1 H0R       0.037200
     45 H16         11.7030    44.8730    32.3540 h1         1 H0R       0.042700
     46 H17         11.1540    46.3790    31.6400 h1         1 H0R       0.042700
     47 H18         10.3560    42.7300    31.7780 ha         1 H0R       0.144000
     48 H19          8.0760    41.8030    31.9400 ha         1 H0R       0.137000
     49 H20          6.1170    43.3250    31.8590 ha         1 H0R       0.134000
     50 H21          6.4710    45.7680    31.6090 ha         1 H0R       0.148000
     51 H22         13.6030    44.7220    31.2590 h1         1 H0R       0.037200
     52 H23         13.4840    46.1190    30.2050 h1         1 H0R       0.037200
     53 H24         14.0580    43.2240    29.5160 hc         1 H0R       0.053200
     54 H25         14.8160    44.6920    28.9330 hc         1 H0R       0.053200
     55 H26         15.7600    42.0490    28.1760 hc         1 H0R       0.059200
     56 H27         16.2630    43.6070    27.5510 hc         1 H0R       0.059200
     57 C20         11.1330    45.2860    31.5180 c3         1 H0R       0.226100
@<TRIPOS>BOND
     1     1     6 1   
     2     1    10 1   
     3     1    29 2   
     4     2    27 1   
     5     2    30 1   
     6     2    31 1   
     7     2    32 1   
     8     3     4 ar  
     9     3     8 ar  
    10     3    27 1   
    11     4     5 ar  
    12     4    33 1   
    13     5     6 ar  
    14     5    23 1   
    15     6     7 ar  
    16     7     8 ar  
    17     7    34 1   
    18     8    28 1   
    19     9    28 1   
    20     9    35 1   
    21     9    36 1   
    22     9    37 1   
    23    10    11 1   
    24    10    23 1   
    25    10    38 1   
    26    11    12 1   
    27    11    39 1   
    28    11    40 1   
    29    12    13 1   
    30    12    22 1   
    31    12    24 1   
    32    13    14 1   
    33    13    41 1   
    34    13    42 1   
    35    14    26 1   
    36    14    43 1   
    37    14    44 1   
    38    15    16 ar  
    39    15    20 ar  
    40    15    57 1   
    41    16    17 ar  
    42    16    47 1   
    43    17    18 ar  
    44    17    48 1   
    45    18    19 ar  
    46    18    49 1   
    47    19    20 ar  
    48    19    50 1   
    49    20    25 1   
    50    21    22 1   
    51    21    26 1   
    52    21    51 1   
    53    21    52 1   
    54    22    53 1   
    55    22    54 1   
    56    23    55 1   
    57    23    56 1   
    58    26    57 1   
    59    45    57 1   
    60    46    57 1   
@<TRIPOS>SUBSTRUCTURE
     1 H0R         1 TEMP              0 ****  ****    0 ROOT
