@<TRIPOS>MOLECULE
H0S
   28    30     1     0     0
SMALL
No Charge or Current Charge


@<TRIPOS>ATOM
      1 N1          -0.1250    -0.6400     0.1100 nu         1 H0S      -0.919900
      2 N3           4.4450    -0.3720    -0.1550 na         1 H0S      -0.155100
      3 C4          -2.0400     0.7470    -0.5680 ca         1 H0S      -0.140500
      4 C5          -1.5030    -0.4050     0.0380 ca         1 H0S       0.295000
      5 C6          -2.3790    -1.3740     0.5570 ca         1 H0S      -0.140500
      6 C7          -3.7720    -1.1870     0.4940 ca         1 H0S      -0.086000
      7 C8           0.9940     0.1790     0.1170 ca         1 H0S       0.459900
      8 C10          2.7460    -1.6880    -0.2250 cc         1 H0S       0.384800
      9 C2          -4.3050    -0.0290    -0.1010 ca         1 H0S      -0.096300
     10 C3          -3.4320     0.9370    -0.6330 ca         1 H0S      -0.086000
     11 C9           2.2710    -0.3510    -0.0190 ca         1 H0S      -0.393900
     12 N2           4.0840    -1.7190    -0.3110 nd         1 H0S      -0.517100
     13 C11          3.3620     0.4630     0.0200 ca         1 H0S       0.155500
     14 N4           3.2490     1.7910     0.1980 nb         1 H0S      -0.220000
     15 C12          1.9790     2.2460     0.3350 ca         1 H0S       0.195900
     16 N5           0.8430     1.5040     0.3080 nb         1 H0S      -0.293000
     17 H1           0.1100    -1.6160     0.2710 hn         1 H0S       0.499000
     18 H2           5.4190    -0.0730    -0.1750 hn         1 H0S       0.389000
     19 H3          -1.3870     1.4930    -1.0080 ha         1 H0S       0.130500
     20 H4          -1.9830    -2.2730     1.0200 ha         1 H0S       0.130500
     21 H5          -4.4350    -1.9430     0.9090 ha         1 H0S       0.113000
     22 H6           2.2170    -2.6270    -0.3200 h4         1 H0S       0.047800
     23 H7          -6.1720     0.7100     0.7200 hc         1 H0S       0.042033
     24 H8          -6.0960     0.7630    -1.0500 hc         1 H0S       0.042033
     25 H9          -6.3440    -0.7800    -0.2240 hc         1 H0S       0.042033
     26 H10         -3.8300     1.8330    -1.1030 ha         1 H0S       0.113000
     27 H11          1.8590     3.3180     0.4840 h5         1 H0S       0.049100
     28 C1          -5.8110     0.1770    -0.1680 c3         1 H0S      -0.042800
@<TRIPOS>BOND
     1     1     4 1   
     2     1     7 1   
     3     1    17 1   
     4     2    12 1   
     5     2    13 1   
     6     2    18 1   
     7     3     4 ar  
     8     3    10 ar  
     9     3    19 1   
    10     4     5 ar  
    11     5     6 ar  
    12     5    20 1   
    13     6     9 ar  
    14     6    21 1   
    15     7    11 ar  
    16     7    16 ar  
    17     8    11 1   
    18     8    12 2   
    19     8    22 1   
    20     9    10 ar  
    21     9    28 1   
    22    10    26 1   
    23    11    13 ar  
    24    13    14 ar  
    25    14    15 ar  
    26    15    16 ar  
    27    15    27 1   
    28    23    28 1   
    29    24    28 1   
    30    25    28 1   
@<TRIPOS>SUBSTRUCTURE
     1 H0S         1 TEMP              0 ****  ****    0 ROOT
