@<TRIPOS>MOLECULE
H0S
   28    30     1     0     0
SMALL
bcc


@<TRIPOS>ATOM
      1 N1          -0.1430    -0.6850     0.0250 nu         1 H0S      -0.726300
      2 N3           4.4200    -0.2970     0.0530 na         1 H0S      -0.104800
      3 C4          -2.0480     0.8860    -0.2200 ca         1 H0S      -0.158500
      4 C5          -1.5090    -0.3840    -0.0060 ca         1 H0S       0.156600
      5 C6          -2.3840    -1.4560     0.1820 ca         1 H0S      -0.158500
      6 C7          -3.7550    -1.2650     0.1580 ca         1 H0S      -0.104000
      7 C8           0.9440     0.1100    -0.0100 ca         1 H0S       0.788200
      8 C10          2.8530    -1.7340     0.1130 cc         1 H0S       0.384800
      9 C2          -4.3080    -0.0050    -0.0550 ca         1 H0S      -0.096300
     10 C3          -3.4240     1.0540    -0.2400 ca         1 H0S      -0.104000
     11 C9           2.2370    -0.4610     0.0370 ca         1 H0S      -0.524500
     12 N2           4.1560    -1.6090     0.1210 nd         1 H0S      -0.517100
     13 C11          3.3000     0.4430     0.0010 ca         1 H0S       0.483800
     14 N4           3.1980     1.7750    -0.0740 nb         1 H0S      -0.746000
     15 C12          1.9460     2.1720    -0.1120 ca         1 H0S       0.721900
     16 N5           0.8340     1.4300    -0.0860 nb         1 H0S      -0.819000
     17 H1           0.0540    -1.6700     0.1100 hn         1 H0S       0.443800
     18 H2           5.3740     0.0280     0.0460 hn         1 H0S       0.338700
     19 H3          -1.4010     1.7360    -0.3660 ha         1 H0S       0.148500
     20 H4          -1.9880    -2.4510     0.3540 ha         1 H0S       0.148500
     21 H5          -4.4040    -2.1190     0.3100 ha         1 H0S       0.131000
     22 H6           2.4000    -2.7120     0.1600 h4         1 H0S       0.047800
     23 H7          -6.1020     0.9870     0.6060 hc         1 H0S       0.042033
     24 H8          -6.1260     0.5140    -1.0830 hc         1 H0S       0.042033
     25 H9          -6.3320    -0.7040     0.1700 hc         1 H0S       0.042033
     26 H10         -3.8160     2.0510    -0.4090 ha         1 H0S       0.131000
     27 H11          1.7820     3.2430    -0.1720 h5         1 H0S       0.049100
     28 C1          -5.7930     0.2060    -0.0900 c3         1 H0S      -0.042800
@<TRIPOS>BOND
     1     1     4 1   
     2     1     7 1   
     3     1    17 1   
     4     2    12 1   
     5     2    13 1   
     6     2    18 1   
     7     3     4 ar  
     8     3    10 ar  
     9     3    19 1   
    10     4     5 ar  
    11     5     6 ar  
    12     5    20 1   
    13     6     9 ar  
    14     6    21 1   
    15     7    11 ar  
    16     7    16 ar  
    17     8    11 1   
    18     8    12 2   
    19     8    22 1   
    20     9    10 ar  
    21     9    28 1   
    22    10    26 1   
    23    11    13 ar  
    24    13    14 ar  
    25    14    15 ar  
    26    15    16 ar  
    27    15    27 1   
    28    23    28 1   
    29    24    28 1   
    30    25    28 1   
@<TRIPOS>SUBSTRUCTURE
     1 H0S         1 TEMP              0 ****  ****    0 ROOT
