@<TRIPOS>MOLECULE
H0T
   66    71     1     0     0
SMALL
abcg2


@<TRIPOS>ATOM
      1 C1          -1.4270    34.1220    24.5540 ca         1 H0T      -0.189000
      2 C2          -3.1490    33.3820    22.8470 c          1 H0T       0.507600
      3 O4          -3.4290    34.2300    21.9960 o          1 H0T      -0.578100
      4 C7          -2.3640    34.8900    25.2720 ca         1 H0T      -0.028000
      5 C9           0.3280    34.8920    26.0460 ca         1 H0T      -0.115000
      6 C11         -1.9630    35.6630    26.3360 cp         1 H0T      -0.100000
      7 C12         -0.5980    35.6490    26.7160 ca         1 H0T      -0.044000
      8 C13          0.4240    32.6690    23.2260 ca         1 H0T       0.383900
      9 C15         -2.9650    36.4450    27.1050 cp         1 H0T       0.062000
     10 C16         -5.4230    32.4800    22.9000 c5         1 H0T       0.153300
     11 C19         -6.0210    31.4260    23.7840 ca         1 H0T      -0.102800
     12 C20         -7.3430    31.0080    23.8540 ca         1 H0T      -0.088000
     13 C21         -7.6810    30.0050    24.7600 ca         1 H0T      -0.105000
     14 C22         -6.7070    29.4310    25.5780 ca         1 H0T      -0.105000
     15 C24         -3.9120    35.7460    27.8570 ca         1 H0T      -0.125000
     16 C27         -4.0110    38.5130    27.8490 ca         1 H0T      -0.021000
     17 C33         -3.2500    38.1940    23.8900 c6         1 H0T       0.236800
     18 C34         -3.0750    38.9530    22.5840 c6         1 H0T       0.147300
     19 N3          -4.0160    32.4930    23.3310 n          1 H0T      -0.409800
     20 C5          -1.7480    33.3450    23.4130 ca         1 H0T       0.147500
     21 C6          -0.0590    34.1060    24.9370 ca         1 H0T       0.089000
     22 N8          -0.8670    32.6330    22.7620 nb         1 H0T      -0.207000
     23 N10          0.8560    33.3710    24.2600 nb         1 H0T      -0.252000
     24 N14          1.2980    31.8850    22.5540 nv         1 H0T      -1.060900
     25 C17         -3.7060    31.4670    24.3450 c5         1 H0T       0.153300
     26 C18         -5.0520    30.8550    24.6010 ca         1 H0T      -0.102800
     27 C23         -5.3820    29.8540    25.5050 ca         1 H0T      -0.088000
     28 C25         -4.8820    36.4070    28.6000 ca         1 H0T      -0.061000
     29 C26         -4.9280    37.7950    28.6030 ca         1 H0T      -0.127000
     30 C28         -3.0380    37.8470    27.1070 ca         1 H0T      -0.267500
     31 S29         -1.9370    38.8520    26.1220 sy         1 H0T       1.227600
     32 O30         -2.5120    40.1810    26.1130 o          1 H0T      -0.557500
     33 O31         -0.5790    38.7160    26.6030 o          1 H0T      -0.557500
     34 N32         -1.9970    38.2030    24.6450 n3         1 H0T      -0.819500
     35 N35         -1.9450    38.4230    21.8260 n3         1 H0T      -0.708600
     36 C36         -0.7100    38.5230    22.6000 c6         1 H0T       0.147300
     37 C37         -0.8280    37.7400    23.8980 c6         1 H0T       0.236800
     38 C38         -1.8180    39.0810    20.5350 c3         1 H0T       0.152100
     39 H1          -3.4030    34.8890    24.9680 ha         1 H0T       0.125000
     40 H2           1.3670    34.8850    26.3510 ha         1 H0T       0.140000
     41 H3          -0.2870    36.2520    27.5580 ha         1 H0T       0.142000
     42 H5          -5.8710    33.4660    23.0430 h1         1 H0T       0.067950
     43 H6          -8.0990    31.4530    23.2200 ha         1 H0T       0.119500
     44 H7          -8.7070    29.6670    24.8290 ha         1 H0T       0.117000
     45 H8          -6.9840    28.6530    26.2780 ha         1 H0T       0.117000
     46 H9          -3.8730    34.6640    27.8570 ha         1 H0T       0.118000
     47 H10         -4.0540    39.5920    27.8170 ha         1 H0T       0.145000
     48 H11         -4.0420    38.6440    24.4840 h1         1 H0T       0.063700
     49 H12         -3.5210    37.1530    23.6870 h1         1 H0T       0.063700
     50 H13         -2.9390    40.0260    22.8060 h1         1 H0T       0.042450
     51 H14         -3.9810    38.8470    21.9840 h1         1 H0T       0.042450
     52 H15          1.0170    31.5010    21.6680 hn         1 H0T       0.501500
     53 H16          2.2820    31.9880    22.7380 hn         1 H0T       0.501500
     54 H17         -2.9880    30.7400    23.9570 h1         1 H0T       0.067950
     55 H18         -3.2780    31.9190    25.2420 h1         1 H0T       0.067950
     56 H19         -4.6270    29.4100    26.1410 ha         1 H0T       0.119500
     57 H20         -5.6000    35.8350    29.1740 ha         1 H0T       0.117000
     58 H21         -5.6800    38.3190    29.1780 ha         1 H0T       0.121000
     59 H23          0.1080    38.1080    22.0080 h1         1 H0T       0.042450
     60 H24         -0.4660    39.5750    22.8280 h1         1 H0T       0.042450
     61 H25         -0.9600    36.6790    23.6770 h1         1 H0T       0.063700
     62 H26          0.0600    37.8640    24.5080 h1         1 H0T       0.063700
     63 H27         -2.7400    38.9520    19.9650 h1         1 H0T       0.032367
     64 H28         -1.6200    40.1610    20.6300 h1         1 H0T       0.032367
     65 H29         -0.9970    38.6320    19.9740 h1         1 H0T       0.032367
     66 H4          -5.4970    32.2330    21.8370 h1         1 H0T       0.067950
@<TRIPOS>BOND
     1     1     4 ar  
     2     1    20 ar  
     3     1    21 ar  
     4     2     3 2   
     5     2    19 1   
     6     2    20 1   
     7     4     6 ar  
     8     4    39 1   
     9     5     7 ar  
    10     5    21 ar  
    11     5    40 1   
    12     6     7 ar  
    13     6     9 1   
    14     7    41 1   
    15     8    22 ar  
    16     8    23 ar  
    17     8    24 1   
    18     9    15 ar  
    19     9    30 ar  
    20    10    11 1   
    21    10    19 1   
    22    10    42 1   
    23    10    66 1   
    24    11    12 ar  
    25    11    26 ar  
    26    12    13 ar  
    27    12    43 1   
    28    13    14 ar  
    29    13    44 1   
    30    14    27 ar  
    31    14    45 1   
    32    15    28 ar  
    33    15    46 1   
    34    16    29 ar  
    35    16    30 ar  
    36    16    47 1   
    37    17    18 1   
    38    17    34 1   
    39    17    48 1   
    40    17    49 1   
    41    18    35 1   
    42    18    50 1   
    43    18    51 1   
    44    19    25 1   
    45    20    22 ar  
    46    21    23 ar  
    47    24    52 1   
    48    24    53 1   
    49    25    26 1   
    50    25    54 1   
    51    25    55 1   
    52    26    27 ar  
    53    27    56 1   
    54    28    29 ar  
    55    28    57 1   
    56    29    58 1   
    57    30    31 1   
    58    31    32 2   
    59    31    33 2   
    60    31    34 1   
    61    34    37 1   
    62    35    36 1   
    63    35    38 1   
    64    36    37 1   
    65    36    59 1   
    66    36    60 1   
    67    37    61 1   
    68    37    62 1   
    69    38    63 1   
    70    38    64 1   
    71    38    65 1   
@<TRIPOS>SUBSTRUCTURE
     1 H0T         1 TEMP              0 ****  ****    0 ROOT
