@<TRIPOS>MOLECULE
H0T
   66    71     1     0     0
SMALL
No Charge or Current Charge


@<TRIPOS>ATOM
      1 C1          -0.7350    33.5570    25.0180 ca         1 H0T      -0.189000
      2 C2          -2.0840    33.1330    22.8430 c          1 H0T       0.507600
      3 O4          -1.9360    33.5360    21.6930 o          1 H0T      -0.578100
      4 C7          -1.6510    34.5210    25.4930 ca         1 H0T      -0.028000
      5 C9           0.6000    33.8730    27.0280 ca         1 H0T      -0.115000
      6 C11         -1.4500    35.1770    26.7270 cp         1 H0T      -0.100000
      7 C12         -0.3200    34.8250    27.4970 ca         1 H0T      -0.044000
      8 C13          1.0790    31.8020    24.1340 ca         1 H0T       0.383900
      9 C15         -2.4330    36.1770    27.2390 cp         1 H0T       0.062000
     10 C16         -4.6010    33.1430    22.5320 c5         1 H0T       0.153300
     11 C19         -5.6360    32.3860    23.3210 ca         1 H0T      -0.102800
     12 C20         -7.0070    32.2850    23.0340 ca         1 H0T      -0.088000
     13 C21         -7.8270    31.5260    23.8920 ca         1 H0T      -0.105000
     14 C22         -7.2710    30.8840    25.0190 ca         1 H0T      -0.105000
     15 C24         -3.2500    35.7870    28.3280 ca         1 H0T      -0.125000
     16 C27         -3.5930    38.3620    27.2650 ca         1 H0T      -0.021000
     17 C33         -3.6820    37.2670    23.8020 c6         1 H0T       0.236800
     18 C34         -4.1400    38.5640    23.0540 c6         1 H0T       0.147300
     19 N3          -3.3750    32.8970    23.3580 n          1 H0T      -0.409800
     20 C5          -0.8950    32.9040    23.7620 ca         1 H0T       0.147500
     21 C6           0.4110    33.2400    25.7870 ca         1 H0T       0.089000
     22 N8           0.0380    32.0290    23.3240 nb         1 H0T      -0.207000
     23 N10          1.3150    32.3480    25.3330 nb         1 H0T      -0.252000
     24 N14          2.0060    30.9150    23.6920 nv         1 H0T      -1.060900
     25 C17         -3.6120    32.0030    24.5400 c5         1 H0T       0.153300
     26 C18         -5.0920    31.7570    24.4220 ca         1 H0T      -0.102800
     27 C23         -5.8930    30.9980    25.2900 ca         1 H0T      -0.088000
     28 C25         -4.2160    36.6490    28.8720 ca         1 H0T      -0.061000
     29 C26         -4.3890    37.9350    28.3390 ca         1 H0T      -0.127000
     30 C28         -2.6220    37.4960    26.7200 ca         1 H0T      -0.267500
     31 S29         -1.5740    38.0570    25.3470 sy         1 H0T       1.227600
     32 O30         -1.8130    39.4840    25.1050 o          1 H0T      -0.557500
     33 O31         -0.2180    37.5370    25.5510 o          1 H0T      -0.557500
     34 N32         -2.2050    37.2070    24.0130 n3         1 H0T      -0.819500
     35 N35         -3.4200    38.7560    21.7550 n3         1 H0T      -0.708600
     36 C36         -1.9370    38.6960    21.9620 c6         1 H0T       0.147300
     37 C37         -1.4900    37.4010    22.7200 c6         1 H0T       0.236800
     38 C38         -3.8510    39.9710    21.0330 c3         1 H0T       0.152100
     39 H1          -2.5310    34.7820    24.9140 ha         1 H0T       0.125000
     40 H2           1.4720    33.6300    27.6310 ha         1 H0T       0.140000
     41 H3          -0.1530    35.3050    28.4590 ha         1 H0T       0.142000
     42 H5          -4.8410    34.2120    22.4700 h1         1 H0T       0.067950
     43 H6          -7.4300    32.7830    22.1640 ha         1 H0T       0.119500
     44 H7          -8.8920    31.4360    23.6860 ha         1 H0T       0.117000
     45 H8          -7.9070    30.2990    25.6800 ha         1 H0T       0.117000
     46 H9          -3.1330    34.7920    28.7500 ha         1 H0T       0.118000
     47 H10         -3.7330    39.3650    26.8640 ha         1 H0T       0.145000
     48 H11         -4.2380    37.1720    24.7450 h1         1 H0T       0.063700
     49 H12         -3.9890    36.4100    23.1860 h1         1 H0T       0.063700
     50 H13         -3.9830    39.4320    23.7090 h1         1 H0T       0.042450
     51 H14         -5.2230    38.4960    22.8760 h1         1 H0T       0.042450
     52 H15          1.9950    30.6470    22.7100 hn         1 H0T       0.501500
     53 H16          2.9070    30.8750    24.1640 hn         1 H0T       0.501500
     54 H17         -3.0430    31.0660    24.4660 h1         1 H0T       0.067950
     55 H18         -3.3710    32.4940    25.4920 h1         1 H0T       0.067950
     56 H19         -5.4580    30.5060    26.1570 ha         1 H0T       0.119500
     57 H20         -4.8320    36.3190    29.7060 ha         1 H0T       0.117000
     58 H21         -5.1380    38.6020    28.7600 ha         1 H0T       0.121000
     59 H23         -1.4210    38.7250    20.9920 h1         1 H0T       0.042450
     60 H24         -1.5970    39.5770    22.5250 h1         1 H0T       0.042450
     61 H25         -1.6970    36.5450    22.0620 h1         1 H0T       0.063700
     62 H26         -0.4000    37.4190    22.8660 h1         1 H0T       0.063700
     63 H27         -4.9330    39.9490    20.8500 h1         1 H0T       0.032367
     64 H28         -3.6180    40.8740    21.6130 h1         1 H0T       0.032367
     65 H29         -3.3440    40.0450    20.0620 h1         1 H0T       0.032367
     66 H4          -4.5000    32.7380    21.5160 h1         1 H0T       0.067950
@<TRIPOS>BOND
     1     1     4 ar  
     2     1    20 ar  
     3     1    21 ar  
     4     2     3 2   
     5     2    19 1   
     6     2    20 1   
     7     4     6 ar  
     8     4    39 1   
     9     5     7 ar  
    10     5    21 ar  
    11     5    40 1   
    12     6     7 ar  
    13     6     9 1   
    14     7    41 1   
    15     8    22 ar  
    16     8    23 ar  
    17     8    24 1   
    18     9    15 ar  
    19     9    30 ar  
    20    10    11 1   
    21    10    19 1   
    22    10    42 1   
    23    10    66 1   
    24    11    12 ar  
    25    11    26 ar  
    26    12    13 ar  
    27    12    43 1   
    28    13    14 ar  
    29    13    44 1   
    30    14    27 ar  
    31    14    45 1   
    32    15    28 ar  
    33    15    46 1   
    34    16    29 ar  
    35    16    30 ar  
    36    16    47 1   
    37    17    18 1   
    38    17    34 1   
    39    17    48 1   
    40    17    49 1   
    41    18    35 1   
    42    18    50 1   
    43    18    51 1   
    44    19    25 1   
    45    20    22 ar  
    46    21    23 ar  
    47    24    52 1   
    48    24    53 1   
    49    25    26 1   
    50    25    54 1   
    51    25    55 1   
    52    26    27 ar  
    53    27    56 1   
    54    28    29 ar  
    55    28    57 1   
    56    29    58 1   
    57    30    31 1   
    58    31    32 2   
    59    31    33 2   
    60    31    34 1   
    61    34    37 1   
    62    35    36 1   
    63    35    38 1   
    64    36    37 1   
    65    36    59 1   
    66    36    60 1   
    67    37    61 1   
    68    37    62 1   
    69    38    63 1   
    70    38    64 1   
    71    38    65 1   
@<TRIPOS>SUBSTRUCTURE
     1 H0T         1 TEMP              0 ****  ****    0 ROOT
