@<TRIPOS>MOLECULE
H0U
   41    43     1     0     0
SMALL
abcg2


@<TRIPOS>ATOM
      1 C01         17.2810    66.6070    35.4840 cc         1 H0U      -0.165000
      2 C07         16.8720    67.6200    41.5870 ca         1 H0U       0.221000
      3 C09         14.8120    66.5930    40.9560 ca         1 H0U      -0.114000
      4 C10         15.2120    66.5670    39.6340 ca         1 H0U      -0.089000
      5 C12         18.1830    66.0030    44.0820 ca         1 H0U      -0.275500
      6 C14         17.1510    63.8590    44.3010 ca         1 H0U      -0.137000
      7 C15         16.8060    64.1420    45.6200 ca         1 H0U      -0.019300
      8 C17         17.8510    66.3130    45.3950 ca         1 H0U      -0.005000
      9 C19         17.2860    66.0490    34.1910 cg         1 H0U       0.349000
     10 C02         17.9410    67.7350    35.8980 cd         1 H0U      -0.075000
     11 C03         17.7200    68.0130    37.2590 cd         1 H0U      -0.131000
     12 C04         16.8970    67.1000    37.8700 cc         1 H0U      -0.151000
     13 C05         16.4540    67.0850    39.2620 ca         1 H0U      -0.014000
     14 C06         17.2770    67.6020    40.2570 ca         1 H0U      -0.093000
     15 C08         15.6200    67.1250    41.9620 ca         1 H0U      -0.030300
     16 C11         15.1230    67.1490    43.3740 c3         1 H0U      -0.051800
     17 C13         17.8440    64.7790    43.5270 ca         1 H0U      -0.005000
     18 C16         17.1700    65.3800    46.1540 ca         1 H0U      -0.137000
     19 C18         16.0760    63.1390    46.4600 c3         1 H0U      -0.058800
     20 N02         17.2910    65.5900    33.1330 n1         1 H0U      -0.442000
     21 O01         19.6650    66.5230    41.9970 o          1 H0U      -0.539000
     22 O02         19.8150    68.0750    43.9550 o          1 H0U      -0.539000
     23 S01         16.3950    65.8790    36.7700 ss         1 H0U       0.286000
     24 S02         19.0150    67.2100    43.1040 sy         1 H0U       1.131600
     25 H1          13.8340    66.2080    41.2180 ha         1 H0U       0.120000
     26 H2          14.5360    66.1690    38.8870 ha         1 H0U       0.121000
     27 H3          16.8780    62.9050    43.8670 ha         1 H0U       0.119000
     28 H4          18.1110    67.2710    45.8250 ha         1 H0U       0.138500
     29 H7          18.5500    68.3390    35.2410 ha         1 H0U       0.146000
     30 H8          18.1320    68.8730    37.7670 ha         1 H0U       0.141000
     31 H9          18.2550    67.9900    40.0030 ha         1 H0U       0.129000
     32 H10         15.3500    66.2090    43.8810 hc         1 H0U       0.052367
     33 H11         15.5730    67.9510    43.9550 hc         1 H0U       0.052367
     34 H12         14.0400    67.2710    43.3950 hc         1 H0U       0.052367
     35 H13         18.1040    64.5370    42.5060 ha         1 H0U       0.138500
     36 H14         16.9100    65.6170    47.1780 ha         1 H0U       0.119000
     37 H15         16.7410    62.7090    47.2110 hc         1 H0U       0.050033
     38 H16         15.2460    63.6010    46.9950 hc         1 H0U       0.050033
     39 H17         15.6820    62.3220    45.8580 hc         1 H0U       0.050033
     40 H18         18.0860    69.0970    42.3640 hn         1 H0U       0.488000
     41 N01         17.7420    68.1640    42.5790 nu         1 H0U      -0.883100
@<TRIPOS>BOND
     1     1     9 1   
     2     1    10 2   
     3     1    23 1   
     4     2    14 ar  
     5     2    15 ar  
     6     2    41 1   
     7     3     4 ar  
     8     3    15 ar  
     9     3    25 1   
    10     4    13 ar  
    11     4    26 1   
    12     5     8 ar  
    13     5    17 ar  
    14     5    24 1   
    15     6     7 ar  
    16     6    17 ar  
    17     6    27 1   
    18     7    18 ar  
    19     7    19 1   
    20     8    18 ar  
    21     8    28 1   
    22     9    20 3   
    23    10    11 1   
    24    10    29 1   
    25    11    12 2   
    26    11    30 1   
    27    12    13 1   
    28    12    23 1   
    29    13    14 ar  
    30    14    31 1   
    31    15    16 1   
    32    16    32 1   
    33    16    33 1   
    34    16    34 1   
    35    17    35 1   
    36    18    36 1   
    37    19    37 1   
    38    19    38 1   
    39    19    39 1   
    40    21    24 2   
    41    22    24 2   
    42    24    41 1   
    43    40    41 1   
@<TRIPOS>SUBSTRUCTURE
     1 H0U         1 TEMP              0 ****  ****    0 ROOT
