@<TRIPOS>MOLECULE
H0U
   41    43     1     0     0
SMALL
No Charge or Current Charge


@<TRIPOS>ATOM
      1 C01         17.2470    66.4280    35.4680 cc         1 H0U      -0.165000
      2 C07         16.9310    67.7270    41.5910 ca         1 H0U       0.221000
      3 C09         14.8030    66.6710    41.0490 ca         1 H0U      -0.114000
      4 C10         15.1910    66.5660    39.7040 ca         1 H0U      -0.089000
      5 C12         18.1770    66.1190    44.1790 ca         1 H0U      -0.275500
      6 C14         17.1860    63.8930    44.1740 ca         1 H0U      -0.137000
      7 C15         16.8040    64.0490    45.5200 ca         1 H0U      -0.019300
      8 C17         17.8000    66.2790    45.5270 ca         1 H0U      -0.005000
      9 C19         17.2830    65.8760    34.1620 cg         1 H0U       0.349000
     10 C02         17.8870    67.5680    35.8960 cd         1 H0U      -0.075000
     11 C03         17.6510    67.8630    37.2680 cd         1 H0U      -0.131000
     12 C04         16.8360    66.9370    37.8750 cc         1 H0U      -0.151000
     13 C05         16.4410    67.0530    39.2820 ca         1 H0U      -0.014000
     14 C06         17.3030    67.6310    40.2370 ca         1 H0U      -0.093000
     15 C08         15.6580    67.2550    42.0020 ca         1 H0U      -0.030300
     16 C11         15.1620    67.3670    43.4430 c3         1 H0U      -0.051800
     17 C13         17.8690    64.9210    43.5030 ca         1 H0U      -0.005000
     18 C16         17.1170    65.2460    46.1920 ca         1 H0U      -0.137000
     19 C18         16.0650    62.9340    46.2420 c3         1 H0U      -0.058800
     20 N02         17.3290    65.4420    33.0800 n1         1 H0U      -0.442000
     21 O01         19.8450    66.8940    42.2270 o          1 H0U      -0.539000
     22 O02         19.5490    68.4280    44.2600 o          1 H0U      -0.539000
     23 S01         16.3120    65.6790    36.7550 ss         1 H0U       0.286000
     24 S02         19.0260    67.4420    43.3110 sy         1 H0U       1.131600
     25 H1          13.8260    66.3000    41.3520 ha         1 H0U       0.120000
     26 H2          14.5070    66.1160    38.9890 ha         1 H0U       0.121000
     27 H3          16.9500    62.9730    43.6440 ha         1 H0U       0.119000
     28 H4          18.0250    67.2020    46.0610 ha         1 H0U       0.138500
     29 H7          18.5080    68.1850    35.2520 ha         1 H0U       0.146000
     30 H8          18.0660    68.7340    37.7640 ha         1 H0U       0.141000
     31 H9          18.2840    67.9840    39.9340 ha         1 H0U       0.129000
     32 H10         15.2600    66.4080    43.9640 hc         1 H0U       0.052367
     33 H11         15.7080    68.1220    44.0200 hc         1 H0U       0.052367
     34 H12         14.1030    67.6490    43.4720 hc         1 H0U       0.052367
     35 H13         18.1490    64.7880    42.4590 ha         1 H0U       0.138500
     36 H14         16.8290    65.3780    47.2320 ha         1 H0U       0.119000
     37 H15         16.7710    62.2470    46.7240 hc         1 H0U       0.050033
     38 H16         15.4010    63.3320    47.0190 hc         1 H0U       0.050033
     39 H17         15.4480    62.3500    45.5500 hc         1 H0U       0.050033
     40 H18         18.3860    69.0390    42.0890 hn         1 H0U       0.488000
     41 N01         17.8330    68.2950    42.4920 nu         1 H0U      -0.883100
@<TRIPOS>BOND
     1     1     9 1   
     2     1    10 2   
     3     1    23 1   
     4     2    14 ar  
     5     2    15 ar  
     6     2    41 1   
     7     3     4 ar  
     8     3    15 ar  
     9     3    25 1   
    10     4    13 ar  
    11     4    26 1   
    12     5     8 ar  
    13     5    17 ar  
    14     5    24 1   
    15     6     7 ar  
    16     6    17 ar  
    17     6    27 1   
    18     7    18 ar  
    19     7    19 1   
    20     8    18 ar  
    21     8    28 1   
    22     9    20 3   
    23    10    11 1   
    24    10    29 1   
    25    11    12 2   
    26    11    30 1   
    27    12    13 1   
    28    12    23 1   
    29    13    14 ar  
    30    14    31 1   
    31    15    16 1   
    32    16    32 1   
    33    16    33 1   
    34    16    34 1   
    35    17    35 1   
    36    18    36 1   
    37    19    37 1   
    38    19    38 1   
    39    19    39 1   
    40    21    24 2   
    41    22    24 2   
    42    24    41 1   
    43    40    41 1   
@<TRIPOS>SUBSTRUCTURE
     1 H0U         1 TEMP              0 ****  ****    0 ROOT
