@<TRIPOS>MOLECULE
H0V
   34    36     1     0     0
SMALL
bcc


@<TRIPOS>ATOM
      1 CAF         -3.3980    -1.3280     0.1900 ca         1 H0V      -0.127500
      2 CAD         -4.7210    -1.6830    -0.0390 ca         1 H0V      -0.127000
      3 CAC         -5.7110    -0.7100    -0.0520 ca         1 H0V      -0.130000
      4 CAE         -5.3670     0.6190     0.1640 ca         1 H0V      -0.127000
      5 CAG         -4.0430     0.9680     0.3930 ca         1 H0V      -0.127500
      6 CAN         -3.0410     0.0000     0.4110 ca         1 H0V      -0.078300
      7 CAI         -1.6040     0.3870     0.6180 c3         1 H0V      -0.037100
      8 CAJ         -0.9480     0.8890    -0.6800 c3         1 H0V      -0.002200
      9 CAQ          0.5000     1.2040    -0.4940 cc         1 H0V      -0.090400
     10 C5           1.5850     0.2850    -0.2810 ca         1 H0V      -0.422400
     11 C6           1.7840    -1.1080    -0.2450 ca         1 H0V       0.778200
     12 NAB          0.7800    -1.9920    -0.4390 nv         1 H0V      -0.947500
     13 N1           2.9880    -1.6040     0.0210 nb         1 H0V      -0.874000
     14 C2           4.0060    -0.7560     0.2330 ca         1 H0V       0.941900
     15 NAA          5.2180    -1.3340     0.4580 nv         1 H0V      -0.934500
     16 N3           3.9630     0.5690     0.1990 nb         1 H0V      -0.824000
     17 C4           2.7430     1.0430    -0.0590 ca         1 H0V       0.517800
     18 NAM          2.4000     2.3460    -0.1440 na         1 H0V      -0.274100
     19 CAH          1.0480     2.4470    -0.4020 cd         1 H0V      -0.136100
     20 HAF         -2.6320    -2.0950     0.2020 ha         1 H0V       0.127000
     21 HAD         -4.9780    -2.7220    -0.2030 ha         1 H0V       0.129000
     22 HAC         -6.7430    -0.9850    -0.2270 ha         1 H0V       0.130000
     23 HAE         -6.1320     1.3850     0.1580 ha         1 H0V       0.129000
     24 HAG         -3.7860     2.0070     0.5650 ha         1 H0V       0.127000
     25 HAI1        -1.5260     1.1740     1.3710 hc         1 H0V       0.056200
     26 HAI2        -1.0420    -0.4680     1.0030 hc         1 H0V       0.056200
     27 HAJ1        -1.0890     0.1440    -1.4710 hc         1 H0V       0.043200
     28 HAJ2        -1.4750     1.7840    -1.0210 hc         1 H0V       0.043200
     29 HAH          0.5780     3.4130    -0.4950 h4         1 H0V       0.165000
     30 HAB1        -0.0430    -1.6990    -0.9350 hn         1 H0V       0.427300
     31 HAB2         1.0380    -2.9560    -0.5740 hn         1 H0V       0.427300
     32 HAA1         5.2150    -2.2930     0.7600 hn         1 H0V       0.424300
     33 HAA2         5.9250    -0.7560     0.8800 hn         1 H0V       0.424300
     34 HAM          3.0310     3.1210    -0.0220 hn         1 H0V       0.309700
@<TRIPOS>BOND
     1     1     2 ar  
     2     1     6 ar  
     3     1    20 1   
     4     2     3 ar  
     5     2    21 1   
     6     3     4 ar  
     7     3    22 1   
     8     4     5 ar  
     9     4    23 1   
    10     5     6 ar  
    11     5    24 1   
    12     6     7 1   
    13     7     8 1   
    14     7    25 1   
    15     7    26 1   
    16     8     9 1   
    17     8    27 1   
    18     8    28 1   
    19     9    10 1   
    20     9    19 2   
    21    10    11 ar  
    22    10    17 ar  
    23    11    12 1   
    24    11    13 ar  
    25    12    30 1   
    26    12    31 1   
    27    13    14 ar  
    28    14    15 1   
    29    14    16 ar  
    30    15    32 1   
    31    15    33 1   
    32    16    17 ar  
    33    17    18 1   
    34    18    19 1   
    35    18    34 1   
    36    19    29 1   
@<TRIPOS>SUBSTRUCTURE
     1 H0V         1 TEMP              0 ****  ****    0 ROOT
