@<TRIPOS>MOLECULE
H0V
   34    36     1     0     0
SMALL
No Charge or Current Charge


@<TRIPOS>ATOM
      1 CAF         -3.4230    -1.3650     0.3130 ca         1 H0V      -0.109500
      2 CAD         -4.7580    -1.7380     0.0740 ca         1 H0V      -0.109000
      3 CAC         -5.7470    -0.7520    -0.0810 ca         1 H0V      -0.112000
      4 CAE         -5.4000     0.6070     0.0050 ca         1 H0V      -0.109000
      5 CAG         -4.0660     0.9800     0.2440 ca         1 H0V      -0.109500
      6 CAN         -3.0700    -0.0040     0.4000 ca         1 H0V      -0.078300
      7 CAI         -1.6240     0.4030     0.6550 c3         1 H0V      -0.037100
      8 CAJ         -0.9070     0.8550    -0.6340 c3         1 H0V      -0.002200
      9 CAQ          0.5410     1.2130    -0.4080 cc         1 H0V      -0.090400
     10 C5           1.6710     0.3320    -0.2240 ca         1 H0V      -0.291800
     11 C6           1.8010    -1.0650    -0.2380 ca         1 H0V       0.449900
     12 NAB          0.7730    -1.9150    -0.4630 nv         1 H0V      -1.057900
     13 N1           2.9880    -1.6500    -0.0420 nb         1 H0V      -0.348000
     14 C2           4.0160    -0.8140     0.1620 ca         1 H0V       0.415900
     15 NAA          5.2180    -1.3980     0.3640 nv         1 H0V      -1.044900
     16 N3           3.9970     0.5290     0.1890 nb         1 H0V      -0.298000
     17 C4           2.7940     1.0950    -0.0120 ca         1 H0V       0.189500
     18 NAM          2.4490     2.4310    -0.0540 na         1 H0V      -0.324400
     19 CAH          1.0570     2.4970    -0.3010 cd         1 H0V      -0.186100
     20 HAF         -2.6650    -2.1360     0.4310 ha         1 H0V       0.109000
     21 HAD         -5.0250    -2.7900     0.0080 ha         1 H0V       0.111000
     22 HAC         -6.7790    -1.0400    -0.2660 ha         1 H0V       0.112000
     23 HAE         -6.1650     1.3720    -0.1150 ha         1 H0V       0.111000
     24 HAG         -3.8060     2.0340     0.3080 ha         1 H0V       0.109000
     25 HAI1        -1.5910     1.2220     1.3840 hc         1 H0V       0.056200
     26 HAI2        -1.0700    -0.4260     1.1110 hc         1 H0V       0.056200
     27 HAJ1        -0.9860     0.0710    -1.3960 hc         1 H0V       0.043200
     28 HAJ2        -1.4360     1.7240    -1.0450 hc         1 H0V       0.043200
     29 HAH          0.5320     3.4470    -0.3730 h4         1 H0V       0.215000
     30 HAB1        -0.0800    -1.5300    -0.8510 hn         1 H0V       0.482500
     31 HAB2         0.9910    -2.8800    -0.6900 hn         1 H0V       0.482500
     32 HAA1         5.2370    -2.3920     0.5730 hn         1 H0V       0.479500
     33 HAA2         5.9730    -0.8330     0.7420 hn         1 H0V       0.479500
     34 HAM          3.0850     3.2120     0.0720 hn         1 H0V       0.360000
@<TRIPOS>BOND
     1     1     2 ar  
     2     1     6 ar  
     3     1    20 1   
     4     2     3 ar  
     5     2    21 1   
     6     3     4 ar  
     7     3    22 1   
     8     4     5 ar  
     9     4    23 1   
    10     5     6 ar  
    11     5    24 1   
    12     6     7 1   
    13     7     8 1   
    14     7    25 1   
    15     7    26 1   
    16     8     9 1   
    17     8    27 1   
    18     8    28 1   
    19     9    10 1   
    20     9    19 2   
    21    10    11 ar  
    22    10    17 ar  
    23    11    12 1   
    24    11    13 ar  
    25    12    30 1   
    26    12    31 1   
    27    13    14 ar  
    28    14    15 1   
    29    14    16 ar  
    30    15    32 1   
    31    15    33 1   
    32    16    17 ar  
    33    17    18 1   
    34    18    19 1   
    35    18    34 1   
    36    19    29 1   
@<TRIPOS>SUBSTRUCTURE
     1 H0V         1 TEMP              0 ****  ****    0 ROOT
