@<TRIPOS>MOLECULE
H0W
   89    96     1     0     0
SMALL
bcc


@<TRIPOS>ATOM
      1 C2           2.3260     0.2090     2.2690 ca         1 H0W      -0.100500
      2 C3           3.3260    -0.2760     1.4380 ca         1 H0W      -0.107300
      3 C41         -3.6320    -5.9380     1.3550 ca         1 H0W       0.386200
      4 C43         -2.2970    -6.1160     1.0480 ca         1 H0W      -0.227300
      5 C45         -1.5180    -5.0090     0.7310 ca         1 H0W      -0.113000
      6 C48         -5.1070    -2.1120     1.9520 c6         1 H0W       0.195800
      7 C51         -5.1370    -0.6030     2.1420 c6         1 H0W      -0.095400
      8 C56         -4.4890    -0.3980    -0.3300 c6         1 H0W      -0.095400
      9 C59         -4.4640    -1.9170    -0.3590 c6         1 H0W       0.195800
     10 C12          3.3280    -1.7260     1.0100 c3         1 H0W       0.109300
     11 C15          4.2740    -2.3560    -1.2460 cc         1 H0W       0.398400
     12 C18          2.8370    -1.4770    -2.5570 cd         1 H0W       0.374800
     13 C19          2.3960    -1.2320    -1.2770 cc         1 H0W      -0.125400
     14 C20          1.2800    -0.4510    -0.7640 cc         1 H0W       0.017600
     15 C21          0.1510    -0.8860    -0.1060 cd         1 H0W      -0.144300
     16 C24          0.0420     1.3450    -0.1120 ca         1 H0W      -0.022200
     17 C25          1.2160     0.9720    -0.7890 ca         1 H0W      -0.110800
     18 C26          2.0640     1.9590    -1.2980 ca         1 H0W      -0.052000
     19 C28          1.7380     3.2810    -1.1100 ca         1 H0W      -0.156000
     20 C30          0.5660     3.6180    -0.4130 ca         1 H0W       0.057400
     21 C4           4.2910     0.6040     0.9610 ca         1 H0W      -0.100500
     22 C6           4.2340     1.9540     1.2680 ca         1 H0W      -0.121000
     23 C8           3.1970     2.4220     2.0590 ca         1 H0W       0.039400
     24 C9           2.2490     1.5580     2.5790 ca         1 H0W      -0.121000
     25 CL1          3.0690     4.1210     2.3750 cl         1 H0W      -0.106400
     26 N14          3.3360    -1.8020    -0.4510 na         1 H0W      -0.167900
     27 N17          4.0080    -2.1830    -2.5130 nd         1 H0W      -0.676000
     28 N22         -0.5930     0.2060     0.2810 na         1 H0W      -0.156400
     29 C31         -0.3050     2.6820     0.0940 ca         1 H0W      -0.139000
     30 CL3          0.2060     5.3010    -0.1830 cl         1 H0W      -0.120400
     31 C34         -0.2350    -2.3030     0.0490 c          1 H0W       0.704300
     32 O35          0.5430    -3.1890    -0.2630 o          1 H0W      -0.568100
     33 N36         -1.4880    -2.5370     0.5090 ns         1 H0W      -0.468100
     34 C38         -2.1210    -3.7590     0.7190 ca         1 H0W      -0.031700
     35 C39         -3.5060    -3.6900     0.9950 ca         1 H0W       0.566200
     36 N40         -4.2220    -4.7450     1.3210 nb         1 H0W      -0.687000
     37 N47         -4.0910    -2.4190     0.9620 nh         1 H0W      -0.780300
     38 C54         -5.3690     0.1150     0.8110 c6         1 H0W       0.132700
     39 N62         -5.3180     1.5730     0.9420 n          1 H0W      -0.513800
     40 C63         -6.5950     2.2630     0.7810 c6         1 H0W       0.110000
     41 C66         -6.5010     3.7050     1.2260 c6         1 H0W      -0.135400
     42 C69         -5.2100     4.2730     0.7000 c6         1 H0W       0.147400
     43 O72         -4.1100     3.5200     1.2140 os         1 H0W      -0.406900
     44 C73         -4.1540     2.1850     1.2300 c          1 H0W       0.867600
     45 O74         -3.1190     1.6010     1.5110 o          1 H0W      -0.674500
     46 C75          2.2410    -1.0860    -3.8360 ca         1 H0W      -0.097500
     47 C76          3.0290    -1.0820    -4.9910 ca         1 H0W      -0.110500
     48 C78          2.4940    -0.7170    -6.2160 ca         1 H0W      -0.137500
     49 C80          1.1590    -0.3470    -6.3180 ca         1 H0W      -0.132000
     50 C82          0.3650    -0.3530    -5.1780 ca         1 H0W      -0.137500
     51 C84          0.8970    -0.7210    -3.9520 ca         1 H0W      -0.110500
     52 C86          4.4820    -2.5040     1.6240 c3         1 H0W      -0.102100
     53 H1           1.5670    -0.4620     2.6520 ha         1 H0W       0.136500
     54 H3          -1.8590    -7.1040     1.0690 ha         1 H0W       0.146000
     55 H4          -0.4670    -5.1290     0.5270 ha         1 H0W       0.172000
     56 H5          -4.8530    -2.5970     2.8940 h1         1 H0W       0.049450
     57 H6          -6.0940    -2.4870     1.6480 h1         1 H0W       0.049450
     58 H7          -5.9350    -0.3360     2.8400 hc         1 H0W       0.060450
     59 H8          -4.1910    -0.2950     2.5860 hc         1 H0W       0.060450
     60 H9          -3.4680    -0.0320    -0.2330 hc         1 H0W       0.060450
     61 H10         -4.8710    -0.0170    -1.2790 hc         1 H0W       0.060450
     62 H11         -5.4430    -2.3200    -0.6560 h1         1 H0W       0.049450
     63 H12         -3.7440    -2.2600    -1.1040 h1         1 H0W       0.049450
     64 H13          2.3990    -2.1860     1.3510 h1         1 H0W       0.077700
     65 H14          5.1360    -2.8780    -0.8610 h5         1 H0W       0.053100
     66 H15          2.9720     1.6870    -1.8220 ha         1 H0W       0.149000
     67 H16          2.3830     4.0640    -1.4850 ha         1 H0W       0.147000
     68 H17          5.0840     0.2510     0.3120 ha         1 H0W       0.136500
     69 H18          4.9740     2.6350     0.8710 ha         1 H0W       0.149000
     70 H19          1.4430     1.9300     3.1970 ha         1 H0W       0.149000
     71 H20         -1.4170     0.2200     0.8650 hn         1 H0W       0.328700
     72 H21         -1.2030     2.9630     0.6240 ha         1 H0W       0.172000
     73 H22         -2.0970    -1.7660     0.7540 hn         1 H0W       0.346500
     74 H23         -6.3990    -0.1030     0.5160 h1         1 H0W       0.045700
     75 H24         -6.9030     2.2080    -0.2670 h1         1 H0W       0.049200
     76 H25         -7.3470     1.7330     1.3680 h1         1 H0W       0.049200
     77 H26         -7.3490     4.2670     0.8370 hc         1 H0W       0.071200
     78 H27         -6.5260     3.7810     2.3160 hc         1 H0W       0.071200
     79 H28         -5.1870     4.2490    -0.3930 h1         1 H0W       0.066700
     80 H29         -5.0440     5.2990     1.0210 h1         1 H0W       0.066700
     81 H30          4.0710    -1.3660    -4.9220 ha         1 H0W       0.139500
     82 H31          3.1250    -0.7210    -7.0960 ha         1 H0W       0.124500
     83 H32          0.7410    -0.0610    -7.2740 ha         1 H0W       0.125000
     84 H33         -0.6800    -0.0780    -5.2440 ha         1 H0W       0.124500
     85 H34          0.2520    -0.7340    -3.0840 ha         1 H0W       0.139500
     86 H35          5.4530    -2.0990     1.3410 hc         1 H0W       0.050700
     87 H36          4.4010    -2.4400     2.7080 hc         1 H0W       0.050700
     88 H37          4.4470    -3.5580     1.3500 hc         1 H0W       0.050700
     89 H2          -4.2550    -6.7800     1.6320 h4         1 H0W       0.022100
@<TRIPOS>BOND
     1     1     2 ar  
     2     1    24 ar  
     3     1    53 1   
     4     2    10 1   
     5     2    21 ar  
     6     3     4 ar  
     7     3    36 ar  
     8     3    89 1   
     9     4     5 ar  
    10     4    54 1   
    11     5    34 ar  
    12     5    55 1   
    13     6     7 1   
    14     6    37 1   
    15     6    56 1   
    16     6    57 1   
    17     7    38 1   
    18     7    58 1   
    19     7    59 1   
    20     8     9 1   
    21     8    38 1   
    22     8    60 1   
    23     8    61 1   
    24     9    37 1   
    25     9    62 1   
    26     9    63 1   
    27    10    26 1   
    28    10    52 1   
    29    10    64 1   
    30    11    26 1   
    31    11    27 2   
    32    11    65 1   
    33    12    13 2   
    34    12    27 1   
    35    12    46 1   
    36    13    14 1   
    37    13    26 1   
    38    14    15 2   
    39    14    17 1   
    40    15    28 1   
    41    15    31 1   
    42    16    17 ar  
    43    16    28 1   
    44    16    29 ar  
    45    17    18 ar  
    46    18    19 ar  
    47    18    66 1   
    48    19    20 ar  
    49    19    67 1   
    50    20    29 ar  
    51    20    30 1   
    52    21    22 ar  
    53    21    68 1   
    54    22    23 ar  
    55    22    69 1   
    56    23    24 ar  
    57    23    25 1   
    58    24    70 1   
    59    28    71 1   
    60    29    72 1   
    61    31    32 2   
    62    31    33 1   
    63    33    34 1   
    64    33    73 1   
    65    34    35 ar  
    66    35    36 ar  
    67    35    37 1   
    68    38    39 1   
    69    38    74 1   
    70    39    40 1   
    71    39    44 1   
    72    40    41 1   
    73    40    75 1   
    74    40    76 1   
    75    41    42 1   
    76    41    77 1   
    77    41    78 1   
    78    42    43 1   
    79    42    79 1   
    80    42    80 1   
    81    43    44 1   
    82    44    45 2   
    83    46    47 ar  
    84    46    51 ar  
    85    47    48 ar  
    86    47    81 1   
    87    48    49 ar  
    88    48    82 1   
    89    49    50 ar  
    90    49    83 1   
    91    50    51 ar  
    92    50    84 1   
    93    51    85 1   
    94    52    86 1   
    95    52    87 1   
    96    52    88 1   
@<TRIPOS>SUBSTRUCTURE
     1 H0W         1 TEMP              0 ****  ****    0 ROOT
