@<TRIPOS>MOLECULE
H0W
   89    96     1     0     0
SMALL
No Charge or Current Charge


@<TRIPOS>ATOM
      1 C2           1.7340    -0.4910     2.3510 ca         1 H0W      -0.082500
      2 C3           2.7590    -0.7300     1.4120 ca         1 H0W      -0.107300
      3 C41         -3.2860    -5.8710     2.2400 ca         1 H0W       0.320900
      4 C43         -1.9330    -5.9800     1.8790 ca         1 H0W      -0.144000
      5 C45         -1.2790    -4.8720     1.3150 ca         1 H0W      -0.095000
      6 C48         -5.0180    -2.0300     2.4760 c6         1 H0W       0.195800
      7 C51         -4.9480    -0.4890     2.4730 c6         1 H0W      -0.095400
      8 C56         -4.5930    -0.6120    -0.1040 c6         1 H0W      -0.095400
      9 C59         -4.6610    -2.1470     0.0260 c6         1 H0W       0.195800
     10 C12          2.9170    -2.1230     0.7950 c3         1 H0W       0.138600
     11 C15          4.1630    -2.5090    -1.4070 cc         1 H0W       0.398400
     12 C18          3.0450    -1.2310    -2.7460 cd         1 H0W       0.309500
     13 C19          2.3000    -1.3250    -1.5850 cc         1 H0W      -0.110800
     14 C20          1.1950    -0.4840    -1.1860 cc         1 H0W       0.017600
     15 C21          0.0680    -0.8900    -0.4510 cd         1 H0W      -0.144300
     16 C24         -0.0250     1.3500    -0.7010 ca         1 H0W      -0.022200
     17 C25          1.0960     0.9390    -1.3610 ca         1 H0W      -0.110800
     18 C26          1.9840     1.8550    -1.9500 ca         1 H0W      -0.034000
     19 C28          1.6580     3.2250    -1.8940 ca         1 H0W      -0.138000
     20 C30          0.4830     3.6470    -1.2360 ca         1 H0W       0.149000
     21 C4           3.5830     0.3420     1.0040 ca         1 H0W      -0.082500
     22 C6           3.3590     1.6380     1.5000 ca         1 H0W      -0.103000
     23 C8           2.3180     1.8700     2.4120 ca         1 H0W       0.131000
     24 C9           1.5120     0.8060     2.8460 ca         1 H0W      -0.103000
     25 Cl1          2.0210     3.4970     3.0080 cl         1 H0W      -0.198000
     26 N14          3.0680    -2.0640    -0.6890 na         1 H0W      -0.146500
     27 N17          4.1750    -2.0180    -2.6360 nd         1 H0W      -0.676000
     28 N22         -0.6780     0.2830    -0.1090 na         1 H0W      -0.206700
     29 C31         -0.3670     2.7070    -0.6220 ca         1 H0W      -0.121000
     30 Cl3          0.0940     5.3600    -1.1540 cl         1 H0W      -0.212000
     31 C34         -0.3060    -2.3260    -0.2040 c          1 H0W       0.637300
     32 O35          0.2940    -3.2780    -0.6870 o          1 H0W      -0.568100
     33 N36         -1.4260    -2.4940     0.5960 ns         1 H0W      -0.142000
     34 C38         -2.0170    -3.6840     1.1230 ca         1 H0W      -0.059000
     35 C39         -3.3770    -3.6810     1.5230 ca         1 H0W       0.500900
     36 N40         -4.0030    -4.7390     2.0710 nb         1 H0W      -0.687000
     37 N47         -4.1800    -2.5450     1.3680 nh         1 H0W      -0.780300
     38 C54         -5.3160     0.0930     1.0790 c6         1 H0W       0.132700
     39 N62         -5.1710     1.5730     1.0310 n          1 H0W      -0.446800
     40 C63         -6.4580     2.3020     0.9280 c6         1 H0W       0.110000
     41 C66         -6.3090     3.7910     1.2450 c6         1 H0W      -0.135400
     42 C69         -5.0570     4.3080     0.5410 c6         1 H0W       0.170600
     43 O72         -3.9110     3.5790     1.0080 os         1 H0W      -0.430100
     44 C73         -3.9060     2.2120     1.1390 c          1 H0W       0.725100
     45 O74         -2.8660     1.6020     1.3360 o          1 H0W      -0.599000
     46 C75          2.6900    -0.5940    -4.0410 ca         1 H0W      -0.097500
     47 C76          3.6820    -0.4070    -5.0320 ca         1 H0W      -0.092500
     48 C78          3.3640     0.1680    -6.2750 ca         1 H0W      -0.119500
     49 C80          2.0440     0.5460    -6.5590 ca         1 H0W      -0.114000
     50 C82          1.0400     0.3350    -5.6030 ca         1 H0W      -0.119500
     51 C84          1.3570    -0.2400    -4.3600 ca         1 H0W      -0.092500
     52 C86          4.0500    -2.8880     1.5130 c3         1 H0W      -0.102100
     53 H1           1.0890    -1.3040     2.6780 ha         1 H0W       0.118500
     54 H3          -1.4020    -6.9130     2.0460 ha         1 H0W       0.128000
     55 H4          -0.2250    -4.9450     1.0590 ha         1 H0W       0.154000
     56 H5          -4.6590    -2.4030     3.4460 h1         1 H0W       0.049450
     57 H6          -6.0610    -2.3590     2.3550 h1         1 H0W       0.049450
     58 H7          -5.6230    -0.0850     3.2380 hc         1 H0W       0.060450
     59 H8          -3.9340    -0.1910     2.7640 hc         1 H0W       0.060450
     60 H9          -3.5400    -0.3180    -0.1520 hc         1 H0W       0.060450
     61 H10         -5.0420    -0.3000    -1.0560 hc         1 H0W       0.060450
     62 H11         -5.6970    -2.4870    -0.1220 h1         1 H0W       0.049450
     63 H12         -4.0480    -2.6070    -0.7640 h1         1 H0W       0.049450
     64 H13          2.0040    -2.6880     1.0050 h1         1 H0W       0.077700
     65 H14          4.9340    -3.1350    -0.9740 h5         1 H0W       0.053100
     66 H15          2.9080     1.5310    -2.4200 ha         1 H0W       0.131000
     67 H16          2.3200     3.9590    -2.3450 ha         1 H0W       0.129000
     68 H17          4.3780     0.1800     0.2800 ha         1 H0W       0.118500
     69 H18          3.9820     2.4640     1.1670 ha         1 H0W       0.131000
     70 H19          0.7080     0.9890     3.5540 ha         1 H0W       0.131000
     71 H20         -1.5240     0.3580     0.4560 hn         1 H0W       0.379000
     72 H21         -1.2530     3.0390    -0.0910 ha         1 H0W       0.154000
     73 H22         -1.8990    -1.6440     0.8700 hn         1 H0W       0.180000
     74 H23         -6.3820    -0.1430     0.9400 h1         1 H0W       0.045700
     75 H24         -6.8390     2.1870    -0.0980 h1         1 H0W       0.049200
     76 H25         -7.2000     1.8590     1.6090 h1         1 H0W       0.049200
     77 H26         -7.1980     4.3460     0.9170 hc         1 H0W       0.071200
     78 H27         -6.2140     3.9410     2.3290 hc         1 H0W       0.071200
     79 H28         -5.1520     4.1700    -0.5460 h1         1 H0W       0.066700
     80 H29         -4.9110     5.3790     0.7410 h1         1 H0W       0.066700
     81 H30          4.7140    -0.6910    -4.8360 ha         1 H0W       0.121500
     82 H31          4.1440     0.3190    -7.0180 ha         1 H0W       0.106500
     83 H32          1.7970     0.9900    -7.5210 ha         1 H0W       0.107000
     84 H33          0.0110     0.6070    -5.8270 ha         1 H0W       0.106500
     85 H34          0.5480    -0.4250    -3.6590 ha         1 H0W       0.121500
     86 H35          5.0170    -2.3910     1.3660 hc         1 H0W       0.050700
     87 H36          3.8530    -2.9320     2.5910 hc         1 H0W       0.050700
     88 H37          4.1220    -3.9170     1.1430 hc         1 H0W       0.050700
     89 H2          -3.8110    -6.7160     2.6840 h4         1 H0W       0.022100
@<TRIPOS>BOND
     1     1     2 ar  
     2     1    24 ar  
     3     1    53 1   
     4     2    10 1   
     5     2    21 ar  
     6     3     4 ar  
     7     3    36 ar  
     8     3    89 1   
     9     4     5 ar  
    10     4    54 1   
    11     5    34 ar  
    12     5    55 1   
    13     6     7 1   
    14     6    37 1   
    15     6    56 1   
    16     6    57 1   
    17     7    38 1   
    18     7    58 1   
    19     7    59 1   
    20     8     9 1   
    21     8    38 1   
    22     8    60 1   
    23     8    61 1   
    24     9    37 1   
    25     9    62 1   
    26     9    63 1   
    27    10    26 1   
    28    10    52 1   
    29    10    64 1   
    30    11    26 1   
    31    11    27 2   
    32    11    65 1   
    33    12    13 2   
    34    12    27 1   
    35    12    46 1   
    36    13    14 1   
    37    13    26 1   
    38    14    15 2   
    39    14    17 1   
    40    15    28 1   
    41    15    31 1   
    42    16    17 ar  
    43    16    28 1   
    44    16    29 ar  
    45    17    18 ar  
    46    18    19 ar  
    47    18    66 1   
    48    19    20 ar  
    49    19    67 1   
    50    20    29 ar  
    51    20    30 1   
    52    21    22 ar  
    53    21    68 1   
    54    22    23 ar  
    55    22    69 1   
    56    23    24 ar  
    57    23    25 1   
    58    24    70 1   
    59    28    71 1   
    60    29    72 1   
    61    31    32 2   
    62    31    33 1   
    63    33    34 1   
    64    33    73 1   
    65    34    35 ar  
    66    35    36 ar  
    67    35    37 1   
    68    38    39 1   
    69    38    74 1   
    70    39    40 1   
    71    39    44 1   
    72    40    41 1   
    73    40    75 1   
    74    40    76 1   
    75    41    42 1   
    76    41    77 1   
    77    41    78 1   
    78    42    43 1   
    79    42    79 1   
    80    42    80 1   
    81    43    44 1   
    82    44    45 2   
    83    46    47 ar  
    84    46    51 ar  
    85    47    48 ar  
    86    47    81 1   
    87    48    49 ar  
    88    48    82 1   
    89    49    50 ar  
    90    49    83 1   
    91    50    51 ar  
    92    50    84 1   
    93    51    85 1   
    94    52    86 1   
    95    52    87 1   
    96    52    88 1   
@<TRIPOS>SUBSTRUCTURE
     1 H0W         1 TEMP              0 ****  ****    0 ROOT
