@<TRIPOS>MOLECULE
H0X
   26    27     1     0     0
SMALL
abcg2


@<TRIPOS>ATOM
      1 C01         -2.5250    -1.4770    -0.0800 c3         1 H0X       0.122700
      2 C02         -3.7880    -2.1730    -0.2290 c1         1 H0X       0.293900
      3 N03         -4.7880    -2.7260    -0.3490 n1         1 H0X      -0.421000
      4 S04         -2.8760     0.3060    -0.0410 ss         1 H0X      -0.217200
      5 C05         -1.2280     0.9030     0.0150 cc         1 H0X       0.526800
      6 N06         -1.1060     2.2440     0.0610 ns         1 H0X      -0.402400
      7 C07          0.1330     2.8820     0.1280 c          1 H0X       0.565200
      8 C08          1.2380     1.9650     0.1280 cc         1 H0X      -0.357200
      9 C09          1.0260     0.6210     0.0540 cd         1 H0X       0.265400
     10 C10          2.1250    -0.3640     0.0320 ca         1 H0X      -0.065800
     11 C11          1.8630    -1.7060     0.3140 ca         1 H0X      -0.074500
     12 C12          2.8870    -2.6400     0.3090 ca         1 H0X      -0.120000
     13 C13          4.1860    -2.2530     0.0110 ca         1 H0X      -0.089000
     14 C14          4.4550    -0.9220    -0.2830 ca         1 H0X      -0.120000
     15 C15          3.4340     0.0150    -0.2730 ca         1 H0X      -0.074500
     16 N16         -0.2320     0.0900     0.0080 nd         1 H0X      -0.680300
     17 O17          0.1950     4.0980     0.1800 o          1 H0X      -0.530000
     18 H01         -2.0430    -1.7900     0.8460 h1         1 H0X       0.112200
     19 H01A        -1.8720    -1.7150    -0.9190 h1         1 H0X       0.112200
     20 HN06        -1.9270     2.8380     0.0590 hn         1 H0X       0.342500
     21 H08          2.2290     2.3870     0.2000 ha         1 H0X       0.218000
     22 H11          0.8550    -2.0160     0.5470 ha         1 H0X       0.121000
     23 H12          2.6670    -3.6750     0.5370 ha         1 H0X       0.117000
     24 H13          4.9850    -2.9830     0.0040 ha         1 H0X       0.116000
     25 H14          5.4630    -0.6120    -0.5270 ha         1 H0X       0.117000
     26 H15          3.6670     1.0410    -0.5240 ha         1 H0X       0.121000
@<TRIPOS>BOND
     1     1     2 1   
     2     1     4 1   
     3     1    18 1   
     4     1    19 1   
     5     2     3 3   
     6     4     5 1   
     7     5     6 1   
     8     5    16 2   
     9     6     7 1   
    10     6    20 1   
    11     7     8 1   
    12     7    17 2   
    13     8     9 2   
    14     8    21 1   
    15     9    10 1   
    16     9    16 1   
    17    10    11 ar  
    18    10    15 ar  
    19    11    12 ar  
    20    11    22 1   
    21    12    13 ar  
    22    12    23 1   
    23    13    14 ar  
    24    13    24 1   
    25    14    15 ar  
    26    14    25 1   
    27    15    26 1   
@<TRIPOS>SUBSTRUCTURE
     1 H0X         1 TEMP              0 ****  ****    0 ROOT
