@<TRIPOS>MOLECULE
H0X
   26    27     1     0     0
SMALL
No Charge or Current Charge


@<TRIPOS>ATOM
      1 C01         -2.6170    -1.4950     0.0140 c3         1 H0X       0.122700
      2 C02         -3.8750    -2.2470     0.0170 c1         1 H0X       0.293900
      3 N03         -4.8610    -2.8690     0.0200 n1         1 H0X      -0.421000
      4 S04         -2.9030     0.3400     0.0050 ss         1 H0X      -0.217200
      5 C05         -1.2760     1.0110     0.0020 cc         1 H0X       0.526800
      6 N06         -1.0930     2.3540    -0.0040 ns         1 H0X      -0.402400
      7 C07          0.1100     2.9440    -0.0060 c          1 H0X       0.565200
      8 C08          1.1930     1.9840    -0.0020 cc         1 H0X      -0.357200
      9 C09          1.0220     0.6110     0.0040 cd         1 H0X       0.265400
     10 C10          2.1420    -0.3740     0.0080 ca         1 H0X      -0.065800
     11 C11          1.8730    -1.7670     0.0140 ca         1 H0X      -0.074500
     12 C12          2.9170    -2.7090     0.0180 ca         1 H0X      -0.120000
     13 C13          4.2520    -2.2830     0.0160 ca         1 H0X      -0.089000
     14 C14          4.5410    -0.9110     0.0100 ca         1 H0X      -0.120000
     15 C15          3.5000     0.0340     0.0060 ca         1 H0X      -0.074500
     16 N16         -0.2910     0.1200     0.0060 nd         1 H0X      -0.680300
     17 O17          0.2540     4.1540    -0.0120 o          1 H0X      -0.530000
     18 H01         -2.0410    -1.7720     0.9040 h1         1 H0X       0.112200
     19 H01A        -2.0410    -1.7790    -0.8750 h1         1 H0X       0.112200
     20 HN06        -1.8970     2.9630    -0.0060 hn         1 H0X       0.342500
     21 H08          2.1670     2.4480    -0.0040 ha         1 H0X       0.218000
     22 H11          0.8510    -2.1360     0.0160 ha         1 H0X       0.121000
     23 H12          2.6870    -3.7730     0.0230 ha         1 H0X       0.117000
     24 H13          5.0590    -3.0130     0.0200 ha         1 H0X       0.116000
     25 H14          5.5760    -0.5770     0.0090 ha         1 H0X       0.117000
     26 H15          3.7750     1.0830     0.0020 ha         1 H0X       0.121000
@<TRIPOS>BOND
     1     1     2 1   
     2     1     4 1   
     3     1    18 1   
     4     1    19 1   
     5     2     3 3   
     6     4     5 1   
     7     5     6 1   
     8     5    16 2   
     9     6     7 1   
    10     6    20 1   
    11     7     8 1   
    12     7    17 2   
    13     8     9 2   
    14     8    21 1   
    15     9    10 1   
    16     9    16 1   
    17    10    11 ar  
    18    10    15 ar  
    19    11    12 ar  
    20    11    22 1   
    21    12    13 ar  
    22    12    23 1   
    23    13    14 ar  
    24    13    24 1   
    25    14    15 ar  
    26    14    25 1   
    27    15    26 1   
@<TRIPOS>SUBSTRUCTURE
     1 H0X         1 TEMP              0 ****  ****    0 ROOT
