@<TRIPOS>MOLECULE
H0Y
   47    51     1     0     0
SMALL
No Charge or Current Charge


@<TRIPOS>ATOM
      1 O82         -1.2300     3.6970     1.1510 o          1 H0Y      -0.701500
      2 C28         -2.3490     4.0310     0.7700 c          1 H0Y       0.612500
      3 O81         -2.6920     5.2100     0.7420 o          1 H0Y      -0.701500
      4 C24         -3.3610     2.9430     0.3120 ca         1 H0Y       0.298500
      5 N23         -2.9960     1.6210     0.3240 nb         1 H0Y      -0.635000
      6 C25         -4.6550     3.3270    -0.1150 ca         1 H0Y      -0.132000
      7 C26         -5.5730     2.3530    -0.5330 ca         1 H0Y      -0.116000
      8 C27         -5.1730     1.0110    -0.5070 ca         1 H0Y      -0.182000
      9 C22         -3.8710     0.6660    -0.0640 cp         1 H0Y       0.366500
     10 C19         -3.3900    -0.7610    -0.0140 cp         1 H0Y      -0.121500
     11 C20         -4.2990    -1.8430     0.0950 ca         1 H0Y      -0.099000
     12 C21         -3.8470    -3.1690     0.1400 ca         1 H0Y      -0.133000
     13 C16         -2.4750    -3.4620     0.0750 ca         1 H0Y      -0.081300
     14 C15         -2.0240    -4.9220     0.1250 c6         1 H0Y      -0.026100
     15 C14         -0.6820    -5.1370    -0.5960 c6         1 H0Y      -0.063400
     16 C13          0.3940    -4.1830    -0.0380 c6         1 H0Y      -0.140700
     17 C18         -2.0040    -1.0750    -0.0650 ca         1 H0Y      -0.034000
     18 C17         -1.5320    -2.4110    -0.0250 ca         1 H0Y      -0.126900
     19 C12         -0.0540    -2.7080    -0.0750 ce         1 H0Y       0.365900
     20 N11          0.8050    -1.7270    -0.1480 n2         1 H0Y      -0.343400
     21 N10          2.1280    -1.8640     0.2270 nu         1 H0Y      -0.583500
     22 C8           3.0840    -0.8640     0.1590 cc         1 H0Y       0.646100
     23 S9           4.7590    -1.1640     0.6800 ss         1 H0Y      -0.106200
     24 C4           5.0590     0.5050     0.2330 ca         1 H0Y      -0.178000
     25 C3           6.2870     1.1740     0.3370 ca         1 H0Y      -0.088000
     26 C2           6.3550     2.5200    -0.0670 ca         1 H0Y      -0.122000
     27 N7           2.7700     0.3530    -0.3030 nd         1 H0Y      -0.511100
     28 C5           3.9230     1.1260    -0.2510 ca         1 H0Y       0.130400
     29 C6           3.9820     2.4700    -0.6560 ca         1 H0Y      -0.039000
     30 C1           5.2040     3.1680    -0.5630 ca         1 H0Y      -0.115000
     31 H25         -4.9400     4.3750    -0.1250 ha         1 H0Y       0.138000
     32 H26         -6.5680     2.6340    -0.8710 ha         1 H0Y       0.090000
     33 H27         -5.8650     0.2450    -0.8420 ha         1 H0Y       0.093000
     34 H20         -5.3680    -1.6600     0.1620 ha         1 H0Y       0.106000
     35 H18         -1.2880    -0.2590    -0.1450 ha         1 H0Y       0.188000
     36 H21         -4.5710    -3.9760     0.2280 ha         1 H0Y       0.095000
     37 H151        -1.9360    -5.2380     1.1740 hc         1 H0Y       0.041200
     38 H152        -2.7860    -5.5710    -0.3290 hc         1 H0Y       0.041200
     39 H141        -0.3560    -6.1800    -0.4860 hc         1 H0Y       0.039200
     40 H142        -0.8110    -4.9570    -1.6720 hc         1 H0Y       0.039200
     41 H131         0.6470    -4.4610     0.9940 hc         1 H0Y       0.040700
     42 H132         1.3060    -4.3170    -0.6350 hc         1 H0Y       0.040700
     43 H10          2.5070    -2.7380     0.5980 hn         1 H0Y       0.489000
     44 H3           7.1680     0.6650     0.7220 ha         1 H0Y       0.107000
     45 H2           7.2960     3.0610     0.0040 ha         1 H0Y       0.101000
     46 H1           5.2590     4.2090    -0.8750 ha         1 H0Y       0.118000
     47 H6           3.0910     2.9620    -1.0380 ha         1 H0Y       0.191000
@<TRIPOS>BOND
     1     1     2 1   
     2     2     3 1   
     3     2     4 1   
     4     4     5 ar  
     5     4     6 ar  
     6     5     9 ar  
     7     6     7 ar  
     8     6    31 1   
     9     7     8 ar  
    10     7    32 1   
    11     8     9 ar  
    12     8    33 1   
    13     9    10 1   
    14    10    11 ar  
    15    10    17 ar  
    16    11    12 ar  
    17    11    34 1   
    18    12    13 ar  
    19    12    36 1   
    20    13    14 1   
    21    13    18 ar  
    22    14    15 1   
    23    14    37 1   
    24    14    38 1   
    25    15    16 1   
    26    15    39 1   
    27    15    40 1   
    28    16    19 1   
    29    16    41 1   
    30    16    42 1   
    31    17    18 ar  
    32    17    35 1   
    33    18    19 1   
    34    19    20 2   
    35    20    21 1   
    36    21    22 1   
    37    21    43 1   
    38    22    23 1   
    39    22    27 2   
    40    23    24 1   
    41    24    25 ar  
    42    24    28 ar  
    43    25    26 ar  
    44    25    44 1   
    45    26    30 ar  
    46    26    45 1   
    47    27    28 1   
    48    28    29 ar  
    49    29    30 ar  
    50    29    47 1   
    51    30    46 1   
@<TRIPOS>SUBSTRUCTURE
     1 H0Y         1 TEMP              0 ****  ****    0 ROOT
