@<TRIPOS>MOLECULE
H0Y
   47    51     1     0     0
SMALL
bcc


@<TRIPOS>ATOM
      1 O82         -0.4230     3.1800     0.2520 o          1 H0Y      -0.806800
      2 C28         -1.5230     3.7340     0.1010 c          1 H0Y       0.823100
      3 O81         -1.7600     4.9570     0.0470 o          1 H0Y      -0.806800
      4 C24         -2.7430     2.8160    -0.0430 ca         1 H0Y       0.363800
      5 N23         -2.5400     1.5080     0.0310 nb         1 H0Y      -0.635000
      6 C25         -4.0150     3.3470    -0.2460 ca         1 H0Y      -0.215300
      7 C26         -5.0820     2.4750    -0.3840 ca         1 H0Y      -0.134000
      8 C27         -4.8590     1.1090    -0.3110 ca         1 H0Y      -0.265300
      9 C22         -3.5570     0.6590    -0.0940 cp         1 H0Y       0.431800
     10 C19         -3.2150    -0.7820    -0.0050 cp         1 H0Y      -0.121500
     11 C20         -4.1790    -1.7840     0.1410 ca         1 H0Y      -0.117000
     12 C21         -3.8010    -3.1120     0.2200 ca         1 H0Y      -0.151000
     13 C16         -2.4630    -3.4950     0.1610 ca         1 H0Y      -0.081300
     14 C15         -2.0570    -4.9380     0.2540 c6         1 H0Y      -0.026100
     15 C14         -0.7920    -5.1980    -0.5490 c6         1 H0Y      -0.063400
     16 C13          0.3430    -4.2960    -0.0790 c6         1 H0Y      -0.140700
     17 C18         -1.8820    -1.1620    -0.0640 ca         1 H0Y      -0.052000
     18 C17         -1.4920    -2.4980     0.0170 ca         1 H0Y      -0.126900
     19 C12         -0.0580    -2.8490    -0.0260 ce         1 H0Y       0.365900
     20 N11          0.7460    -1.8580     0.0130 n2         1 H0Y      -0.343400
     21 N10          2.0710    -2.0360    -0.0050 nu         1 H0Y      -0.528300
     22 C8           2.8490    -0.9260     0.0050 cc         1 H0Y       0.646100
     23 S9           4.5980    -1.1090    -0.0360 ss         1 H0Y      -0.233100
     24 C4           4.7240     0.6280     0.0000 ca         1 H0Y      -0.051100
     25 C3           5.8640     1.4180    -0.0080 ca         1 H0Y      -0.106000
     26 C2           5.6980     2.7950     0.0260 ca         1 H0Y      -0.140000
     27 N7           2.4000     0.2810     0.0420 nd         1 H0Y      -0.511100
     28 C5           3.4340     1.1820     0.0410 ca         1 H0Y       0.130400
     29 C6           3.2880     2.5680     0.0760 ca         1 H0Y      -0.057000
     30 C1           4.4220     3.3610     0.0670 ca         1 H0Y      -0.133000
     31 H25         -4.1570     4.4160    -0.2990 ha         1 H0Y       0.156000
     32 H26         -6.0830     2.8520    -0.5530 ha         1 H0Y       0.108000
     33 H27         -5.6820     0.4190    -0.4320 ha         1 H0Y       0.111000
     34 H20         -5.2320    -1.5390     0.2030 ha         1 H0Y       0.124000
     35 H18         -1.1260    -0.3970    -0.1690 ha         1 H0Y       0.206000
     36 H21         -4.5640    -3.8740     0.3310 ha         1 H0Y       0.113000
     37 H151        -1.8820    -5.2000     1.3040 hc         1 H0Y       0.041200
     38 H152        -2.8720    -5.5770    -0.0900 hc         1 H0Y       0.041200
     39 H141        -0.4880    -6.2410    -0.4520 hc         1 H0Y       0.039200
     40 H142        -0.9880    -5.0200    -1.6090 hc         1 H0Y       0.039200
     41 H131         0.6680    -4.6050     0.9220 hc         1 H0Y       0.040700
     42 H132         1.2070    -4.4270    -0.7370 hc         1 H0Y       0.040700
     43 H10          2.4960    -2.9540    -0.0360 hn         1 H0Y       0.433800
     44 H3           6.8520     0.9790    -0.0400 ha         1 H0Y       0.125000
     45 H2           6.5700     3.4360     0.0200 ha         1 H0Y       0.119000
     46 H1           4.3190     4.4380     0.0930 ha         1 H0Y       0.136000
     47 H6           2.2930     2.9990     0.1090 ha         1 H0Y       0.209000
@<TRIPOS>BOND
     1     1     2 1   
     2     2     3 1   
     3     2     4 1   
     4     4     5 ar  
     5     4     6 ar  
     6     5     9 ar  
     7     6     7 ar  
     8     6    31 1   
     9     7     8 ar  
    10     7    32 1   
    11     8     9 ar  
    12     8    33 1   
    13     9    10 1   
    14    10    11 ar  
    15    10    17 ar  
    16    11    12 ar  
    17    11    34 1   
    18    12    13 ar  
    19    12    36 1   
    20    13    14 1   
    21    13    18 ar  
    22    14    15 1   
    23    14    37 1   
    24    14    38 1   
    25    15    16 1   
    26    15    39 1   
    27    15    40 1   
    28    16    19 1   
    29    16    41 1   
    30    16    42 1   
    31    17    18 ar  
    32    17    35 1   
    33    18    19 1   
    34    19    20 2   
    35    20    21 1   
    36    21    22 1   
    37    21    43 1   
    38    22    23 1   
    39    22    27 2   
    40    23    24 1   
    41    24    25 ar  
    42    24    28 ar  
    43    25    26 ar  
    44    25    44 1   
    45    26    30 ar  
    46    26    45 1   
    47    27    28 1   
    48    28    29 ar  
    49    29    30 ar  
    50    29    47 1   
    51    30    46 1   
@<TRIPOS>SUBSTRUCTURE
     1 H0Y         1 TEMP              0 ****  ****    0 ROOT
