@<TRIPOS>MOLECULE
H0Z
   44    49     1     0     0
SMALL
No Charge or Current Charge


@<TRIPOS>ATOM
      1 C01          1.0850    -3.3900     0.6390 c3         1 H0Z       0.159100
      2 N02          0.2190    -2.2080     0.8810 n3         1 H0Z      -0.742600
      3 C04         -0.7000    -2.4500     2.0200 c6         1 H0Z       0.184800
      4 C05         -1.4430    -1.1610     2.4060 c6         1 H0Z      -0.038100
      5 C06         -2.2460    -0.6360     1.2280 ca         1 H0Z      -0.057300
      6 C07         -1.8090    -0.9190    -0.0950 ca         1 H0Z      -0.105300
      7 C08         -2.6060    -0.4930    -1.1890 ca         1 H0Z      -0.093000
      8 C09         -3.7740     0.2320    -0.9260 ca         1 H0Z       0.048100
      9 O10         -4.6400     0.7050    -1.8580 os         1 H0Z      -0.342100
     10 C11         -5.6240     1.4360    -1.0420 c5         1 H0Z       0.373600
     11 O12         -5.3340     1.2170     0.3840 os         1 H0Z      -0.343100
     12 C13         -4.1680     0.5230     0.3470 ca         1 H0Z       0.059100
     13 C14         -3.4310     0.0980     1.4560 ca         1 H0Z      -0.098000
     14 C15         -0.4890    -1.6940    -0.3600 c6         1 H0Z       0.238800
     15 C16          0.4600    -0.8120    -1.2640 c5         1 H0Z       0.225600
     16 O17          1.5710    -1.5820    -1.8470 os         1 H0Z      -0.424100
     17 C18          2.7780    -1.0330    -1.4600 c          1 H0Z       0.699700
     18 O19          3.8760    -1.4520    -1.7970 o          1 H0Z      -0.479000
     19 C20          2.5070     0.1540    -0.6280 ca         1 H0Z      -0.173600
     20 C21          3.3730     1.0560    -0.0110 ca         1 H0Z       0.131100
     21 O22          4.7280     1.0510    -0.0460 os         1 H0Z      -0.316100
     22 C23          5.0730     2.1860     0.8260 c5         1 H0Z       0.370600
     23 O24          3.8410     2.8870     1.2350 os         1 H0Z      -0.343100
     24 C25          2.8640     2.0990     0.7160 ca         1 H0Z       0.036100
     25 C26          1.4770     2.2970     0.8630 ca         1 H0Z      -0.077000
     26 C27          0.5960     1.3790     0.2390 ca         1 H0Z      -0.091000
     27 C28          1.1450     0.3050    -0.5010 ca         1 H0Z      -0.089300
     28 H1           0.4980    -4.2310     0.2460 h1         1 H0Z       0.038700
     29 H2           1.8930    -3.1750    -0.0680 h1         1 H0Z       0.038700
     30 H3           1.5600    -3.7170     1.5740 h1         1 H0Z       0.038700
     31 H5          -1.4320    -3.2310     1.7660 h1         1 H0Z       0.038200
     32 H6          -0.1380    -2.8030     2.8970 h1         1 H0Z       0.038200
     33 H7          -2.1010    -1.3630     3.2610 hc         1 H0Z       0.063200
     34 H8          -0.7210    -0.4000     2.7330 hc         1 H0Z       0.063200
     35 H9          -2.3320    -0.7190    -2.2160 ha         1 H0Z       0.135000
     36 H10         -5.5440     2.5070    -1.2620 h2         1 H0Z       0.066700
     37 H11         -3.7740     0.3210     2.4630 ha         1 H0Z       0.136000
     38 H12         -0.7890    -2.5610    -0.9680 h1         1 H0Z       0.060700
     39 H13         -0.1180    -0.3910    -2.0950 h1         1 H0Z       0.089700
     40 H14          5.5830     1.8080     1.7200 h2         1 H0Z       0.070200
     41 H15          1.0940     3.1360     1.4390 ha         1 H0Z       0.137000
     42 H16         -0.4800     1.5030     0.3290 ha         1 H0Z       0.134000
     43 H18         -6.6340     1.0790    -1.2740 h2         1 H0Z       0.066700
     44 H4           5.7290     2.8790     0.2860 h2         1 H0Z       0.070200
@<TRIPOS>BOND
     1     1     2 1   
     2     1    28 1   
     3     1    29 1   
     4     1    30 1   
     5     2     3 1   
     6     2    14 1   
     7     3     4 1   
     8     3    31 1   
     9     3    32 1   
    10     4     5 1   
    11     4    33 1   
    12     4    34 1   
    13     5     6 ar  
    14     5    13 ar  
    15     6     7 ar  
    16     6    14 1   
    17     7     8 ar  
    18     7    35 1   
    19     8     9 1   
    20     8    12 ar  
    21     9    10 1   
    22    10    11 1   
    23    10    36 1   
    24    10    43 1   
    25    11    12 1   
    26    12    13 ar  
    27    13    37 1   
    28    14    15 1   
    29    14    38 1   
    30    15    16 1   
    31    15    27 1   
    32    15    39 1   
    33    16    17 1   
    34    17    18 2   
    35    17    19 1   
    36    19    20 ar  
    37    19    27 ar  
    38    20    21 1   
    39    20    24 ar  
    40    21    22 1   
    41    22    23 1   
    42    22    40 1   
    43    22    44 1   
    44    23    24 1   
    45    24    25 ar  
    46    25    26 ar  
    47    25    41 1   
    48    26    27 ar  
    49    26    42 1   
@<TRIPOS>SUBSTRUCTURE
     1 H0Z         1 TEMP              0 ****  ****    0 ROOT
