@<TRIPOS>MOLECULE
H0Z
   44    49     1     0     0
SMALL
abcg2


@<TRIPOS>ATOM
      1 C01          0.6430    -3.7620     0.2630 c3         1 H0Z       0.159100
      2 N02          0.3080    -2.3700     0.4920 n3         1 H0Z      -0.742600
      3 C04         -0.2150    -2.1940     1.8320 c6         1 H0Z       0.184800
      4 C05         -0.6700    -0.7710     2.0790 c6         1 H0Z      -0.038100
      5 C06         -1.7250    -0.4050     1.0800 ca         1 H0Z      -0.057300
      6 C07         -1.6440    -0.9550    -0.1930 ca         1 H0Z      -0.105300
      7 C08         -2.6170    -0.6700    -1.1660 ca         1 H0Z      -0.093000
      8 C09         -3.6310     0.1810    -0.8140 ca         1 H0Z       0.048100
      9 O10         -4.6690     0.6230    -1.5650 os         1 H0Z      -0.342100
     10 C11         -5.5160     1.3510    -0.6850 c5         1 H0Z       0.373600
     11 O12         -4.7960     1.5400     0.5270 os         1 H0Z      -0.343100
     12 C13         -3.7080     0.7360     0.4540 ca         1 H0Z       0.059100
     13 C14         -2.7800     0.4540     1.4230 ca         1 H0Z      -0.098000
     14 C15         -0.4520    -1.7840    -0.5980 c6         1 H0Z       0.238800
     15 C16          0.4890    -0.8890    -1.4610 c5         1 H0Z       0.225600
     16 O17          1.6710    -1.6420    -1.7470 os         1 H0Z      -0.424100
     17 C18          2.7130    -1.2180    -1.0160 c          1 H0Z       0.699700
     18 O19          3.7620    -1.8040    -0.9870 o          1 H0Z      -0.479000
     19 C20          2.3230     0.0430    -0.3860 ca         1 H0Z      -0.173600
     20 C21          3.0150     0.9580     0.3640 ca         1 H0Z       0.131100
     21 O22          4.2810     0.9450     0.8100 os         1 H0Z      -0.316100
     22 C23          4.4350     2.1140     1.6180 c5         1 H0Z       0.370600
     23 O24          3.2580     2.8920     1.4490 os         1 H0Z      -0.343100
     24 C25          2.3850     2.1330     0.7460 ca         1 H0Z       0.036100
     25 C26          1.0890     2.4310     0.3900 ca         1 H0Z      -0.077000
     26 C27          0.3780     1.4910    -0.3720 ca         1 H0Z      -0.091000
     27 C28          1.0000     0.3150    -0.7320 ca         1 H0Z      -0.089300
     28 H1          -0.2320    -4.4250     0.3400 h1         1 H0Z       0.038700
     29 H2           1.0860    -3.9020    -0.7200 h1         1 H0Z       0.038700
     30 H3           1.3740    -4.0890     1.0040 h1         1 H0Z       0.038700
     31 H5          -1.0580    -2.8760     2.0350 h1         1 H0Z       0.038200
     32 H6           0.5760    -2.4610     2.5380 h1         1 H0Z       0.038200
     33 H7          -1.0590    -0.6860     3.0950 hc         1 H0Z       0.063200
     34 H8           0.1840    -0.0890     2.0100 hc         1 H0Z       0.063200
     35 H9          -2.5630    -1.1040    -2.1570 ha         1 H0Z       0.135000
     36 H10         -5.7610     2.3180    -1.1240 h2         1 H0Z       0.066700
     37 H11         -2.8510     0.8780     2.4170 ha         1 H0Z       0.136000
     38 H12         -0.8150    -2.5750    -1.2670 h1         1 H0Z       0.060700
     39 H13          0.0010    -0.6420    -2.4070 h1         1 H0Z       0.089700
     40 H14          4.5450     1.8210     2.6650 h2         1 H0Z       0.070200
     41 H15          0.6320     3.3660     0.6830 ha         1 H0Z       0.137000
     42 H16         -0.6410     1.7030    -0.6630 ha         1 H0Z       0.134000
     43 H18         -6.4290     0.7790    -0.4880 h2         1 H0Z       0.066700
     44 H4           5.3060     2.6770     1.2820 h2         1 H0Z       0.070200
@<TRIPOS>BOND
     1     1     2 1   
     2     1    28 1   
     3     1    29 1   
     4     1    30 1   
     5     2     3 1   
     6     2    14 1   
     7     3     4 1   
     8     3    31 1   
     9     3    32 1   
    10     4     5 1   
    11     4    33 1   
    12     4    34 1   
    13     5     6 ar  
    14     5    13 ar  
    15     6     7 ar  
    16     6    14 1   
    17     7     8 ar  
    18     7    35 1   
    19     8     9 1   
    20     8    12 ar  
    21     9    10 1   
    22    10    11 1   
    23    10    36 1   
    24    10    43 1   
    25    11    12 1   
    26    12    13 ar  
    27    13    37 1   
    28    14    15 1   
    29    14    38 1   
    30    15    16 1   
    31    15    27 1   
    32    15    39 1   
    33    16    17 1   
    34    17    18 2   
    35    17    19 1   
    36    19    20 ar  
    37    19    27 ar  
    38    20    21 1   
    39    20    24 ar  
    40    21    22 1   
    41    22    23 1   
    42    22    40 1   
    43    22    44 1   
    44    23    24 1   
    45    24    25 ar  
    46    25    26 ar  
    47    25    41 1   
    48    26    27 ar  
    49    26    42 1   
@<TRIPOS>SUBSTRUCTURE
     1 H0Z         1 TEMP              0 ****  ****    0 ROOT
