@<TRIPOS>MOLECULE
H10
   52    55     1     0     0
SMALL
abcg2


@<TRIPOS>ATOM
      1 C1           3.3630     0.2550     0.2080 c6         1 H10       0.205000
      2 O2           2.0230     0.6250     0.5850 os         1 H10      -0.370100
      3 C3           0.9920    -0.2270     0.7400 ca         1 H10       0.156100
      4 C4          -0.2700     0.3390     0.5510 ca         1 H10      -0.128000
      5 C5          -1.4280    -0.4140     0.7260 ca         1 H10       0.060000
      6 C6          -2.7060     0.1930     0.5430 cg         1 H10      -0.087000
      7 C7          -3.7880     0.7030     0.3970 c1         1 H10      -0.151100
      8 C8          -5.1010     1.3350     0.2380 c3         1 H10       0.198800
      9 N9          -6.1340     0.3880    -0.1840 n          1 H10      -0.254300
     10 C10         -5.9490    -0.3650    -1.3370 c          1 H10       0.638100
     11 O11         -5.2030     0.0310    -2.2200 o          1 H10      -0.614100
     12 N12         -6.6600    -1.5030    -1.4140 nt         1 H10      -0.605000
     13 O13         -6.6660    -0.3200     0.8790 oh         1 H10      -0.474100
     14 C14         -5.0350     2.5840    -0.6370 c3         1 H10      -0.084100
     15 C15         -1.3330    -1.7640     1.0770 ca         1 H10      -0.124000
     16 C16         -0.0810    -2.3220     1.2580 ca         1 H10      -0.084000
     17 C17          1.0780    -1.5720     1.1030 ca         1 H10      -0.185000
     18 C18          3.4010    -0.7430    -0.9520 c6         1 H10      -0.085067
     19 C19          4.8590    -0.9790    -1.3670 c6         1 H10      -0.057700
     20 C20          5.4820     0.3390    -1.8310 c6         1 H10      -0.071400
     21 C21          5.4430     1.3470    -0.6820 c6         1 H10      -0.057700
     22 C22          6.2400     0.8020     0.5040 c6         1 H10      -0.071400
     23 C23          5.6170    -0.5140     0.9700 c6         1 H10      -0.057700
     24 C24          5.6420    -1.5300    -0.1740 c6         1 H10      -0.071400
     25 C25          4.1660    -0.2690     1.4010 c6         1 H10      -0.085067
     26 C26          3.9890     1.5720    -0.2600 c6         1 H10      -0.085067
     27 H4          -0.3440     1.3830     0.2710 ha         1 H10       0.131000
     28 H8          -5.4300     1.6650     1.2270 h1         1 H10       0.068700
     29 HN12        -7.2980    -1.7960    -0.6970 hn         1 H10       0.323500
     30 HN1A        -6.6650    -2.0020    -2.2860 hn         1 H10       0.323500
     31 HO13        -7.5110     0.1070     1.0710 ho         1 H10       0.453000
     32 H14         -6.0350     3.0000    -0.7590 hc         1 H10       0.054033
     33 H14A        -4.4160     3.3330    -0.1430 hc         1 H10       0.054033
     34 H14B        -4.6140     2.3780    -1.6160 hc         1 H10       0.054033
     35 H15         -2.2280    -2.3580     1.2080 ha         1 H10       0.122000
     36 H16          0.0060    -3.3650     1.5350 ha         1 H10       0.111000
     37 H17          2.0270    -2.0530     1.2830 ha         1 H10       0.117000
     38 H18          2.9510    -1.6990    -0.6770 hc         1 H10       0.053033
     39 H18A         2.8240    -0.3500    -1.7960 hc         1 H10       0.053033
     40 H19          4.8750    -1.7020    -2.1860 hc         1 H10       0.053033
     41 H20          6.5140     0.1750    -2.1580 hc         1 H10       0.042533
     42 H20A         4.9340     0.7270    -2.6950 hc         1 H10       0.042533
     43 H21          5.8690     2.3000    -1.0080 hc         1 H10       0.053033
     44 H22          7.2840     0.6480     0.2160 hc         1 H10       0.042533
     45 H22A         6.2420     1.5270     1.3240 hc         1 H10       0.042533
     46 H23          6.1770    -0.9050     1.8230 hc         1 H10       0.053033
     47 H24          5.2080    -2.4800     0.1530 hc         1 H10       0.042533
     48 H24A         6.6750    -1.7400    -0.4680 hc         1 H10       0.042533
     49 H25          4.1300     0.4630     2.2150 hc         1 H10       0.053033
     50 H25A         3.7460    -1.1970     1.7950 hc         1 H10       0.053033
     51 H26          3.4110     1.9720    -1.0990 hc         1 H10       0.053033
     52 H26A         3.9390     2.3090     0.5490 hc         1 H10       0.053033
@<TRIPOS>BOND
     1     1     2 1   
     2     1    18 1   
     3     1    25 1   
     4     1    26 1   
     5     2     3 1   
     6     3     4 ar  
     7     3    17 ar  
     8     4     5 ar  
     9     4    27 1   
    10     5     6 1   
    11     5    15 ar  
    12     6     7 3   
    13     7     8 1   
    14     8     9 1   
    15     8    14 1   
    16     8    28 1   
    17     9    10 1   
    18     9    13 1   
    19    10    11 2   
    20    10    12 1   
    21    12    29 1   
    22    12    30 1   
    23    13    31 1   
    24    14    32 1   
    25    14    33 1   
    26    14    34 1   
    27    15    16 ar  
    28    15    35 1   
    29    16    17 ar  
    30    16    36 1   
    31    17    37 1   
    32    18    19 1   
    33    18    38 1   
    34    18    39 1   
    35    19    20 1   
    36    19    24 1   
    37    19    40 1   
    38    20    21 1   
    39    20    41 1   
    40    20    42 1   
    41    21    22 1   
    42    21    26 1   
    43    21    43 1   
    44    22    23 1   
    45    22    44 1   
    46    22    45 1   
    47    23    24 1   
    48    23    25 1   
    49    23    46 1   
    50    24    47 1   
    51    24    48 1   
    52    25    49 1   
    53    25    50 1   
    54    26    51 1   
    55    26    52 1   
@<TRIPOS>SUBSTRUCTURE
     1 H10         1 TEMP              0 ****  ****    0 ROOT
