@<TRIPOS>MOLECULE
H10
   52    55     1     0     0
SMALL
No Charge or Current Charge


@<TRIPOS>ATOM
      1 C1           3.4880     0.3120    -0.0070 c6         1 H10       0.205000
      2 O2           2.0800     0.6700    -0.0480 os         1 H10      -0.370100
      3 C3           1.0020    -0.1980    -0.1610 ca         1 H10       0.156100
      4 C4          -0.2770     0.3840    -0.1820 ca         1 H10      -0.128000
      5 C5          -1.4400    -0.4070    -0.2950 ca         1 H10       0.060000
      6 C6          -2.7280     0.2240    -0.3120 cg         1 H10      -0.087000
      7 C7          -3.8240     0.7480    -0.3270 c1         1 H10      -0.151100
      8 C8          -5.1610     1.3670    -0.3020 c3         1 H10       0.198800
      9 N9          -6.1690     0.6190     0.4960 n          1 H10      -0.254300
     10 C10         -6.3900    -0.7810     0.3910 c          1 H10       0.638100
     11 O11         -5.8800    -1.5020    -0.4490 o          1 H10      -0.614100
     12 N12         -7.2470    -1.2960     1.2930 nt         1 H10      -0.605000
     13 O13         -6.8790     1.4010     1.4950 oh         1 H10      -0.474100
     14 C14         -5.6750     1.7050    -1.7160 c3         1 H10      -0.084100
     15 C15         -1.3510    -1.8110    -0.3900 ca         1 H10      -0.124000
     16 C16         -0.0980    -2.4430    -0.3730 ca         1 H10      -0.084000
     17 C17          1.0700    -1.6300    -0.2590 ca         1 H10      -0.185000
     18 C18          3.9730    -0.3720    -1.3310 c6         1 H10      -0.085067
     19 C19          5.5050    -0.6430    -1.2620 c6         1 H10      -0.057700
     20 C20          6.2610     0.7080    -1.1230 c6         1 H10      -0.071400
     21 C21          5.8050     1.4240     0.1790 c6         1 H10      -0.057700
     22 C22          6.1420     0.5310     1.4050 c6         1 H10      -0.071400
     23 C23          5.3860    -0.8210     1.2840 c6         1 H10      -0.057700
     24 C24          5.8200    -1.5420    -0.0280 c6         1 H10      -0.071400
     25 C25          3.8530    -0.5530     1.2480 c6         1 H10      -0.085067
     26 C26          4.2680     1.6620     0.1240 c6         1 H10      -0.085067
     27 H4          -0.3650     1.4650    -0.1100 ha         1 H10       0.131000
     28 H8          -5.0200     2.3320     0.2040 h1         1 H10       0.068700
     29 HN12        -7.6430    -0.6870     1.9930 hn         1 H10       0.323500
     30 HN1A        -7.4530    -2.2820     1.2800 hn         1 H10       0.323500
     31 HO13        -7.6800     1.7430     1.0340 ho         1 H10       0.453000
     32 H14         -6.6300     2.2410    -1.6590 hc         1 H10       0.054033
     33 H14A        -4.9590     2.3430    -2.2480 hc         1 H10       0.054033
     34 H14B        -5.8280     0.7930    -2.3050 hc         1 H10       0.054033
     35 H15         -2.2550    -2.4100    -0.4760 ha         1 H10       0.122000
     36 H16         -0.0200    -3.5250    -0.4450 ha         1 H10       0.111000
     37 H17          2.0160    -2.1520    -0.2490 ha         1 H10       0.117000
     38 H18          3.4590    -1.3170    -1.5280 hc         1 H10       0.053033
     39 H18A         3.7460     0.2740    -2.1900 hc         1 H10       0.053033
     40 H19          5.8300    -1.1520    -2.1800 hc         1 H10       0.053033
     41 H20          7.3460     0.5360    -1.1030 hc         1 H10       0.042533
     42 H20A         6.0640     1.3450    -1.9970 hc         1 H10       0.042533
     43 H21          6.3260     2.3880     0.2700 hc         1 H10       0.053033
     44 H22          7.2260     0.3570     1.4620 hc         1 H10       0.042533
     45 H22A         5.8610     1.0420     2.3360 hc         1 H10       0.042533
     46 H23          5.6280    -1.4550     2.1490 hc         1 H10       0.053033
     47 H24          5.3010    -2.5070    -0.1200 hc         1 H10       0.042533
     48 H24A         6.8940    -1.7720     0.0060 hc         1 H10       0.042533
     49 H25          3.5430    -0.0310     2.1630 hc         1 H10       0.053033
     50 H25A         3.3280    -1.5120     1.2620 hc         1 H10       0.053033
     51 H26          4.0240     2.3200    -0.7230 hc         1 H10       0.053033
     52 H26A         3.9430     2.1970     1.0270 hc         1 H10       0.053033
@<TRIPOS>BOND
     1     1     2 1   
     2     1    18 1   
     3     1    25 1   
     4     1    26 1   
     5     2     3 1   
     6     3     4 ar  
     7     3    17 ar  
     8     4     5 ar  
     9     4    27 1   
    10     5     6 1   
    11     5    15 ar  
    12     6     7 3   
    13     7     8 1   
    14     8     9 1   
    15     8    14 1   
    16     8    28 1   
    17     9    10 1   
    18     9    13 1   
    19    10    11 2   
    20    10    12 1   
    21    12    29 1   
    22    12    30 1   
    23    13    31 1   
    24    14    32 1   
    25    14    33 1   
    26    14    34 1   
    27    15    16 ar  
    28    15    35 1   
    29    16    17 ar  
    30    16    36 1   
    31    17    37 1   
    32    18    19 1   
    33    18    38 1   
    34    18    39 1   
    35    19    20 1   
    36    19    24 1   
    37    19    40 1   
    38    20    21 1   
    39    20    41 1   
    40    20    42 1   
    41    21    22 1   
    42    21    26 1   
    43    21    43 1   
    44    22    23 1   
    45    22    44 1   
    46    22    45 1   
    47    23    24 1   
    48    23    25 1   
    49    23    46 1   
    50    24    47 1   
    51    24    48 1   
    52    25    49 1   
    53    25    50 1   
    54    26    51 1   
    55    26    52 1   
@<TRIPOS>SUBSTRUCTURE
     1 H10         1 TEMP              0 ****  ****    0 ROOT
