@<TRIPOS>MOLECULE
H11
   45    46     1     0     0
SMALL
abcg2


@<TRIPOS>ATOM
      1 C4           0.4950     0.6910     0.3170 c2         1 H11       0.746100
      2 C5           3.9220    -0.3760     0.0380 c3         1 H11      -0.053400
      3 C6           3.6350     1.8410    -1.1190 c3         1 H11      -0.068100
      4 C7          -1.9190     0.3040     0.5030 c3         1 H11       0.233500
      5 C8          -3.0640     1.1630     1.0570 c3         1 H11      -0.084900
      6 C10         -4.1330     1.5380     0.0310 c3         1 H11      -0.066400
      7 C13         -3.9150    -1.9280    -0.7210 c3         1 H11      -0.070400
      8 C15          4.4140    -2.5890     1.1360 c3         1 H11      -0.087100
      9 C11         -4.9810     0.4310    -0.5950 c3         1 H11      -0.070400
     10 C12         -4.2260    -0.6100    -1.4350 c3         1 H11      -0.074400
     11 C14         -3.3740    -1.8380     0.7010 c3         1 H11      -0.066400
     12 C9          -2.0120    -1.1800     0.8780 c3         1 H11      -0.084900
     13 N17         -0.6370     0.8320     0.9750 nu         1 H11      -0.859400
     14 S            1.9720     1.3410     1.0150 ss         1 H11      -0.373200
     15 N            0.5810     0.1050    -0.8490 ne         1 H11      -0.750100
     16 C2           1.8500     0.0840    -1.3250 c          1 H11       0.714500
     17 O            2.1720    -0.3900    -2.3960 o          1 H11      -0.521100
     18 C            2.9220     0.6980    -0.4040 c5         1 H11      -0.025000
     19 C3           3.3310    -1.5990     0.7270 c3         1 H11      -0.081400
     20 H5           4.4630    -0.6920    -0.8600 hc         1 H11       0.056200
     21 H5A          4.6640     0.0920     0.6910 hc         1 H11       0.056200
     22 H6           4.1690     1.4510    -1.9860 hc         1 H11       0.052700
     23 H6A          2.9350     2.6040    -1.4590 hc         1 H11       0.052700
     24 H6B          4.3640     2.3140    -0.4610 hc         1 H11       0.052700
     25 H7          -1.8880     0.4070    -0.5810 h1         1 H11       0.094700
     26 H8          -3.5190     0.6770     1.9250 hc         1 H11       0.046200
     27 H8A         -2.6510     2.1040     1.4310 hc         1 H11       0.046200
     28 H10         -4.8120     2.2460     0.5140 hc         1 H11       0.038700
     29 H10A        -3.6460     2.0990    -0.7740 hc         1 H11       0.038700
     30 H13         -4.8360    -2.5170    -0.6810 hc         1 H11       0.038700
     31 H13A        -3.2180    -2.5060    -1.3360 hc         1 H11       0.038700
     32 H15          3.9860    -3.4550     1.6410 hc         1 H11       0.033033
     33 H15A         4.9690    -2.9510     0.2690 hc         1 H11       0.033033
     34 H15B         5.1310    -2.1300     1.8190 hc         1 H11       0.033033
     35 H11         -5.5750    -0.0690     0.1770 hc         1 H11       0.038700
     36 H11A        -5.7110     0.9320    -1.2370 hc         1 H11       0.038700
     37 H12         -3.3120    -0.1660    -1.8380 hc         1 H11       0.042200
     38 H12A        -4.8250    -0.8570    -2.3150 hc         1 H11       0.042200
     39 H14         -4.1080    -1.3490     1.3490 hc         1 H11       0.038700
     40 H14A        -3.2900    -2.8560     1.0910 hc         1 H11       0.038700
     41 H9          -1.2600    -1.7290     0.3040 hc         1 H11       0.046200
     42 H9A         -1.7270    -1.2720     1.9310 hc         1 H11       0.046200
     43 HN17        -0.6110     1.2440     1.8960 hn         1 H11       0.503000
     44 H3           2.7690    -1.2910     1.6130 hc         1 H11       0.047700
     45 H3A          2.6200    -2.1000     0.0660 hc         1 H11       0.047700
@<TRIPOS>BOND
     1     1    13 1   
     2     1    14 1   
     3     1    15 2   
     4     2    18 1   
     5     2    19 1   
     6     2    20 1   
     7     2    21 1   
     8     3    18 1   
     9     3    22 1   
    10     3    23 1   
    11     3    24 1   
    12     4     5 1   
    13     4    12 1   
    14     4    13 1   
    15     4    25 1   
    16     5     6 1   
    17     5    26 1   
    18     5    27 1   
    19     6     9 1   
    20     6    28 1   
    21     6    29 1   
    22     7    10 1   
    23     7    11 1   
    24     7    30 1   
    25     7    31 1   
    26     8    19 1   
    27     8    32 1   
    28     8    33 1   
    29     8    34 1   
    30     9    10 1   
    31     9    35 1   
    32     9    36 1   
    33    10    37 1   
    34    10    38 1   
    35    11    12 1   
    36    11    39 1   
    37    11    40 1   
    38    12    41 1   
    39    12    42 1   
    40    13    43 1   
    41    14    18 1   
    42    15    16 1   
    43    16    17 2   
    44    16    18 1   
    45    19    44 1   
    46    19    45 1   
@<TRIPOS>SUBSTRUCTURE
     1 H11         1 TEMP              0 ****  ****    0 ROOT
