@<TRIPOS>MOLECULE
H11
   45    46     1     0     0
SMALL
No Charge or Current Charge


@<TRIPOS>ATOM
      1 C4           0.6120     1.2400     0.0910 c2         1 H11       0.746100
      2 C5           3.6050    -0.4690     0.0690 c3         1 H11      -0.053400
      3 C6           4.2130     1.8540    -0.7790 c3         1 H11      -0.068100
      4 C7          -1.7820     0.5520     0.3650 c3         1 H11       0.233500
      5 C8          -3.0520     1.2640     0.9120 c3         1 H11      -0.084900
      6 C10         -4.2640     1.3010    -0.0590 c3         1 H11      -0.066400
      7 C13         -3.4370    -2.1880    -0.4600 c3         1 H11      -0.070400
      8 C15          3.2080    -2.8730     0.9110 c3         1 H11      -0.087100
      9 C11         -4.9550    -0.0410    -0.4220 c3         1 H11      -0.070400
     10 C12         -4.1010    -1.0340    -1.2530 c3         1 H11      -0.074400
     11 C14         -2.7940    -1.8440     0.9060 c3         1 H11      -0.066400
     12 C9          -1.5710    -0.8950     0.8910 c3         1 H11      -0.084900
     13 N17         -0.5950     1.3440     0.7170 nu         1 H11      -0.859400
     14 S            2.0700     1.6910     0.9680 ss         1 H11      -0.373200
     15 N            0.7340     0.8090    -1.1060 ne         1 H11      -0.750100
     16 C2           2.0340     0.7480    -1.5890 c          1 H11       0.714500
     17 O            2.3130     0.6500    -2.7740 o          1 H11      -0.521100
     18 C            3.0430     0.9090    -0.4020 c5         1 H11      -0.025000
     19 C3           2.5610    -1.5500     0.4560 c3         1 H11      -0.081400
     20 H5           4.2390    -0.8840    -0.7250 hc         1 H11       0.056200
     21 H5A          4.2680    -0.3110     0.9290 hc         1 H11       0.056200
     22 H6           4.8130     1.4400    -1.6000 hc         1 H11       0.052700
     23 H6A          3.8410     2.8340    -1.1020 hc         1 H11       0.052700
     24 H6B          4.8830     2.0180     0.0730 hc         1 H11       0.052700
     25 H7          -1.8600     0.5250    -0.7300 h1         1 H11       0.094700
     26 H8          -3.3510     0.8340     1.8750 hc         1 H11       0.046200
     27 H8A         -2.8070     2.3120     1.1280 hc         1 H11       0.046200
     28 H10         -5.0250     1.9520     0.3890 hc         1 H11       0.038700
     29 H10A        -3.9560     1.8000    -0.9860 hc         1 H11       0.038700
     30 H13         -4.2040    -2.9500    -0.2760 hc         1 H11       0.038700
     31 H13A        -2.6850    -2.6670    -1.0990 hc         1 H11       0.038700
     32 H15          2.4350    -3.6050     1.1730 hc         1 H11       0.033033
     33 H15A         3.8270    -3.2980     0.1110 hc         1 H11       0.033033
     34 H15B         3.8410    -2.7130     1.7920 hc         1 H11       0.033033
     35 H11         -5.3430    -0.5250     0.4820 hc         1 H11       0.038700
     36 H11A        -5.8410     0.2100    -1.0180 hc         1 H11       0.038700
     37 H12         -3.3530    -0.4930    -1.8420 hc         1 H11       0.042200
     38 H12A        -4.7570    -1.4970    -2.0010 hc         1 H11       0.042200
     39 H14         -3.5570    -1.4590     1.5920 hc         1 H11       0.038700
     40 H14A        -2.4650    -2.7890     1.3550 hc         1 H11       0.038700
     41 H9          -0.7730    -1.3680     0.3060 hc         1 H11       0.046200
     42 H9A         -1.1980    -0.8390     1.9210 hc         1 H11       0.046200
     43 HN17        -0.5340     1.6910     1.6690 hn         1 H11       0.503000
     44 H3           1.9220    -1.1810     1.2660 hc         1 H11       0.047700
     45 H3A          1.9080    -1.7600    -0.4000 hc         1 H11       0.047700
@<TRIPOS>BOND
     1     1    13 1   
     2     1    14 1   
     3     1    15 2   
     4     2    18 1   
     5     2    19 1   
     6     2    20 1   
     7     2    21 1   
     8     3    18 1   
     9     3    22 1   
    10     3    23 1   
    11     3    24 1   
    12     4     5 1   
    13     4    12 1   
    14     4    13 1   
    15     4    25 1   
    16     5     6 1   
    17     5    26 1   
    18     5    27 1   
    19     6     9 1   
    20     6    28 1   
    21     6    29 1   
    22     7    10 1   
    23     7    11 1   
    24     7    30 1   
    25     7    31 1   
    26     8    19 1   
    27     8    32 1   
    28     8    33 1   
    29     8    34 1   
    30     9    10 1   
    31     9    35 1   
    32     9    36 1   
    33    10    37 1   
    34    10    38 1   
    35    11    12 1   
    36    11    39 1   
    37    11    40 1   
    38    12    41 1   
    39    12    42 1   
    40    13    43 1   
    41    14    18 1   
    42    15    16 1   
    43    16    17 2   
    44    16    18 1   
    45    19    44 1   
    46    19    45 1   
@<TRIPOS>SUBSTRUCTURE
     1 H11         1 TEMP              0 ****  ****    0 ROOT
