@<TRIPOS>MOLECULE
H12
   44    46     1     0     0
SMALL
bcc


@<TRIPOS>ATOM
      1 CA           1.9140    -0.0800     0.0610 c6         1 H12       0.155100
      2 CB           2.3970    -1.0610     1.1180 c6         1 H12      -0.090400
      3 CC           3.5760    -1.8720     0.5810 c6         1 H12      -0.073400
      4 CD           4.7070    -0.9620     0.1170 c6         1 H12      -0.078400
      5 CE           4.2130     0.0430    -0.9180 c6         1 H12      -0.073400
      6 CF           3.0260     0.8470    -0.3930 c6         1 H12      -0.090400
      7 N1          -2.8790    -0.9390     0.5830 ns         1 H12      -0.442100
      8 C6          -2.2970    -0.7190     1.8030 c          1 H12       0.710700
      9 O2          -2.8790    -1.0370     2.8330 o          1 H12      -0.621500
     10 C5          -0.9610    -0.1290     1.7790 cc         1 H12      -0.202400
     11 C4          -0.3890     0.2010     0.5930 cd         1 H12       0.197900
     12 O4           0.8410     0.7530     0.5530 os         1 H12      -0.346900
     13 C2          -2.3550    -0.5720    -0.6240 ca         1 H12       0.105600
     14 C3          -1.0920     0.0300    -0.6600 ca         1 H12      -0.146800
     15 C7          -0.5870     0.4790    -1.8870 ca         1 H12      -0.057000
     16 C8          -1.3100     0.2780    -3.0390 ca         1 H12      -0.016600
     17 C9          -2.5510    -0.3600    -3.0100 ca         1 H12      -0.067000
     18 C10         -3.0720    -0.7770    -1.8070 ca         1 H12      -0.180000
     19 CL          -0.6800     0.8350    -4.5540 cl         1 H12      -0.104400
     20 C12         -0.7880     1.4470     3.7280 c3         1 H12      -0.071400
     21 C13         -0.1240     1.7120     5.0720 c3         1 H12      -0.088100
     22 HA           1.5550    -0.6550    -0.8030 h1         1 H12       0.044700
     23 HB1          2.7120    -0.5090     2.0100 hc         1 H12       0.054450
     24 HB2          1.5860    -1.7300     1.4170 hc         1 H12       0.054450
     25 HC1          3.2400    -2.4930    -0.2570 hc         1 H12       0.043450
     26 HC2          3.9290    -2.5590     1.3520 hc         1 H12       0.043450
     27 HD1          5.5250    -1.5560    -0.2980 hc         1 H12       0.043200
     28 HD2          5.1160    -0.4240     0.9780 hc         1 H12       0.043200
     29 HE1          3.9180    -0.4870    -1.8290 hc         1 H12       0.043450
     30 HE2          5.0180     0.7250    -1.2030 hc         1 H12       0.043450
     31 HF1          2.6550     1.5250    -1.1650 hc         1 H12       0.054450
     32 HF2          3.3440     1.4650     0.4540 hc         1 H12       0.054450
     33 HN1         -3.7940    -1.3710     0.5950 hn         1 H12       0.330500
     34 H7           0.3600     1.0000    -1.9300 ha         1 H12       0.159000
     35 H9          -3.1070    -0.5170    -3.9240 ha         1 H12       0.151000
     36 H10         -4.0420    -1.2570    -1.7760 ha         1 H12       0.143000
     37 H111         0.7710     0.1700     2.9900 hc         1 H12       0.056200
     38 H112        -0.5260    -0.6910     3.7860 hc         1 H12       0.056200
     39 H121        -1.8730     1.4230     3.8520 hc         1 H12       0.045700
     40 H122        -0.5710     2.2690     3.0400 hc         1 H12       0.045700
     41 H131        -0.4730     2.6480     5.5100 hc         1 H12       0.031033
     42 H132        -0.3400     0.9130     5.7840 hc         1 H12       0.031033
     43 H133         0.9610     1.7780     4.9710 hc         1 H12       0.031033
     44 C11         -0.3120     0.1330     3.1020 c3         1 H12      -0.018200
@<TRIPOS>BOND
     1     1     2 1   
     2     1     6 1   
     3     1    12 1   
     4     1    22 1   
     5     2     3 1   
     6     2    23 1   
     7     2    24 1   
     8     3     4 1   
     9     3    25 1   
    10     3    26 1   
    11     4     5 1   
    12     4    27 1   
    13     4    28 1   
    14     5     6 1   
    15     5    29 1   
    16     5    30 1   
    17     6    31 1   
    18     6    32 1   
    19     7     8 1   
    20     7    13 1   
    21     7    33 1   
    22     8     9 2   
    23     8    10 1   
    24    10    11 2   
    25    10    44 1   
    26    11    12 1   
    27    11    14 1   
    28    13    14 ar  
    29    13    18 ar  
    30    14    15 ar  
    31    15    16 ar  
    32    15    34 1   
    33    16    17 ar  
    34    16    19 1   
    35    17    18 ar  
    36    17    35 1   
    37    18    36 1   
    38    20    21 1   
    39    20    39 1   
    40    20    40 1   
    41    20    44 1   
    42    21    41 1   
    43    21    42 1   
    44    21    43 1   
    45    37    44 1   
    46    38    44 1   
@<TRIPOS>SUBSTRUCTURE
     1 H12         1 TEMP              0 ****  ****    0 ROOT
