@<TRIPOS>MOLECULE
H12
   44    46     1     0     0
SMALL
No Charge or Current Charge


@<TRIPOS>ATOM
      1 CA           1.9350     0.0120    -0.0150 c6         1 H12       0.178300
      2 CB           2.3030    -1.1730     0.9180 c6         1 H12      -0.090400
      3 CC           3.5110    -1.9690     0.3630 c6         1 H12      -0.073400
      4 CD           4.7330    -1.0440     0.1390 c6         1 H12      -0.078400
      5 CE           4.3720     0.1500    -0.7800 c6         1 H12      -0.073400
      6 CF           3.1580     0.9380    -0.2260 c6         1 H12      -0.090400
      7 N1          -2.8730    -0.9660     0.6390 ns         1 H12      -0.375100
      8 C6          -2.2960    -0.7240     1.8630 c          1 H12       0.568200
      9 O2          -2.8700    -1.0500     2.8910 o          1 H12      -0.546000
     10 C5          -0.9610    -0.0610     1.8110 cc         1 H12      -0.202400
     11 C4          -0.4220     0.2390     0.5740 cd         1 H12       0.197900
     12 O4           0.8350     0.7810     0.5220 os         1 H12      -0.370100
     13 C2          -2.3740    -0.6250    -0.6280 ca         1 H12       0.105600
     14 C3          -1.1260     0.0120    -0.7000 ca         1 H12      -0.146800
     15 C7          -0.6410     0.4360    -1.9590 ca         1 H12      -0.039000
     16 C8          -1.3830     0.1720    -3.1240 ca         1 H12       0.075000
     17 C9          -2.6150    -0.4970    -3.0430 ca         1 H12      -0.049000
     18 C10         -3.1160    -0.8890    -1.7890 ca         1 H12      -0.162000
     19 Cl          -0.7690     0.6930    -4.6880 cl         1 H12      -0.196000
     20 C12         -0.8030     1.5260     3.7980 c3         1 H12      -0.071400
     21 C13         -0.1270     1.8320     5.1490 c3         1 H12      -0.088100
     22 HA           1.6460    -0.4020    -0.9900 h1         1 H12       0.044700
     23 HB1          2.5470    -0.7970     1.9210 hc         1 H12       0.054450
     24 HB2          1.4420    -1.8460     1.0320 hc         1 H12       0.054450
     25 HC1          3.2330    -2.4510    -0.5840 hc         1 H12       0.043450
     26 HC2          3.7770    -2.7760     1.0580 hc         1 H12       0.043450
     27 HD1          5.5600    -1.6180    -0.3020 hc         1 H12       0.043200
     28 HD2          5.0950    -0.6690     1.1060 hc         1 H12       0.043200
     29 HE1          4.1450    -0.2180    -1.7910 hc         1 H12       0.043450
     30 HE2          5.2380     0.8190    -0.8800 hc         1 H12       0.043450
     31 HF1          2.8950     1.7460    -0.9210 hc         1 H12       0.054450
     32 HF2          3.4300     1.4160     0.7250 hc         1 H12       0.054450
     33 HN1         -3.7770    -1.4200     0.6660 hn         1 H12       0.330500
     34 H7           0.2930     0.9820    -2.0460 ha         1 H12       0.141000
     35 H9          -3.1860    -0.6960    -3.9470 ha         1 H12       0.133000
     36 H10         -4.0810    -1.3880    -1.7240 ha         1 H12       0.125000
     37 H111         0.7860     0.2850     3.0360 hc         1 H12       0.056200
     38 H112        -0.4710    -0.6180     3.8410 hc         1 H12       0.056200
     39 H121        -1.8880     1.4670     3.9480 hc         1 H12       0.045700
     40 H122        -0.6210     2.3600     3.1100 hc         1 H12       0.045700
     41 H131        -0.5140     2.7680     5.5670 hc         1 H12       0.031033
     42 H132        -0.3190     1.0280     5.8700 hc         1 H12       0.031033
     43 H133         0.9580     1.9350     5.0250 hc         1 H12       0.031033
     44 C11         -0.3010     0.2180     3.1510 c3         1 H12      -0.018200
@<TRIPOS>BOND
     1     1     2 1   
     2     1     6 1   
     3     1    12 1   
     4     1    22 1   
     5     2     3 1   
     6     2    23 1   
     7     2    24 1   
     8     3     4 1   
     9     3    25 1   
    10     3    26 1   
    11     4     5 1   
    12     4    27 1   
    13     4    28 1   
    14     5     6 1   
    15     5    29 1   
    16     5    30 1   
    17     6    31 1   
    18     6    32 1   
    19     7     8 1   
    20     7    13 1   
    21     7    33 1   
    22     8     9 2   
    23     8    10 1   
    24    10    11 2   
    25    10    44 1   
    26    11    12 1   
    27    11    14 1   
    28    13    14 ar  
    29    13    18 ar  
    30    14    15 ar  
    31    15    16 ar  
    32    15    34 1   
    33    16    17 ar  
    34    16    19 1   
    35    17    18 ar  
    36    17    35 1   
    37    18    36 1   
    38    20    21 1   
    39    20    39 1   
    40    20    40 1   
    41    20    44 1   
    42    21    41 1   
    43    21    42 1   
    44    21    43 1   
    45    37    44 1   
    46    38    44 1   
@<TRIPOS>SUBSTRUCTURE
     1 H12         1 TEMP              0 ****  ****    0 ROOT
