@<TRIPOS>MOLECULE
H13
   66    66     1     0     0
SMALL
bcc


@<TRIPOS>ATOM
      1 O21          1.7910    -1.3440     1.8390 o          1 H13      -0.602100
      2 C21          1.7740    -0.9310     0.6870 c          1 H13       0.668100
      3 N2           2.7930    -1.1030    -0.1760 ns         1 H13      -0.573900
      4 C2           4.0160    -1.8200     0.1220 c3         1 H13       0.115700
      5 C1           4.0350    -3.1730    -0.5740 c3         1 H13       0.117400
      6 O1           4.0090    -2.9730    -1.9680 oh         1 H13      -0.605800
      7 C3           5.2360    -0.9720    -0.2380 c3         1 H13      -0.122400
      8 C4           5.3710     0.2970     0.6040 c3         1 H13       0.194400
      9 C5           6.5340     1.1300     0.1030 ca         1 H13      -0.111300
     10 C6           6.3630     1.9420    -1.0160 ca         1 H13      -0.119500
     11 C7           7.4160     2.6890    -1.5230 ca         1 H13      -0.126500
     12 C8           8.6630     2.6370    -0.9130 ca         1 H13      -0.127000
     13 C9           8.8430     1.8330     0.2040 ca         1 H13      -0.126500
     14 C10          7.7860     1.0860     0.7090 ca         1 H13      -0.119500
     15 O4           5.4560     0.0110     1.9790 oh         1 H13      -0.578800
     16 C22          0.5980    -0.1580     0.1300 c3         1 H13      -0.157400
     17 C23         -0.7450    -0.6600     0.6430 c3         1 H13      -0.065400
     18 C24         -1.9150     0.1000     0.0320 c3         1 H13      -0.076400
     19 C25         -3.2680    -0.3820     0.5390 c3         1 H13      -0.074400
     20 C26         -4.4420     0.3450    -0.1040 c3         1 H13      -0.074400
     21 C27         -5.7980    -0.1340     0.3980 c3         1 H13      -0.074400
     22 C28         -6.9690     0.5820    -0.2630 c3         1 H13      -0.074400
     23 C29         -8.3290     0.1040     0.2320 c3         1 H13      -0.074400
     24 C30         -9.4960     0.8160    -0.4390 c3         1 H13      -0.074400
     25 C31        -10.8580     0.3380     0.0510 c3         1 H13      -0.075400
     26 C32        -12.0240     1.0480    -0.6250 c3         1 H13      -0.074400
     27 C33        -13.3800     0.5630    -0.1320 c3         1 H13      -0.088100
     28 HN2          2.6630    -0.7950    -1.1260 hn         1 H13       0.316500
     29 H2           4.0210    -2.0180     1.1940 h1         1 H13       0.092700
     30 H1           4.9350    -3.7150    -0.2550 h1         1 H13       0.030200
     31 H1A          3.1700    -3.7530    -0.2320 h1         1 H13       0.030200
     32 HO1          3.9150    -3.8290    -2.3950 ho         1 H13       0.407000
     33 H3           6.1390    -1.5810    -0.1140 hc         1 H13       0.059200
     34 H3A          5.2040    -0.6970    -1.2960 hc         1 H13       0.059200
     35 H4           4.4600     0.8920     0.4830 h1         1 H13       0.081700
     36 H6           5.3910     1.9970    -1.4940 ha         1 H13       0.128000
     37 H7           7.2620     3.3180    -2.3900 ha         1 H13       0.130000
     38 H8           9.4860     3.2240    -1.3010 ha         1 H13       0.131000
     39 H9           9.8100     1.7870     0.6890 ha         1 H13       0.130000
     40 H10          7.9500     0.4760     1.5880 ha         1 H13       0.128000
     41 HO4          6.0590    -0.7280     2.1110 ho         1 H13       0.398000
     42 H22          0.7290     0.8930     0.4110 hc         1 H13       0.055200
     43 H22A         0.6120    -0.1800    -0.9630 hc         1 H13       0.055200
     44 H23         -0.8500    -1.7260     0.4160 hc         1 H13       0.053700
     45 H23A        -0.7800    -0.5730     1.7320 hc         1 H13       0.053700
     46 H24         -1.8070     1.1690     0.2420 hc         1 H13       0.035700
     47 H24A        -1.8800     0.0010    -1.0590 hc         1 H13       0.035700
     48 H25         -3.3630    -1.4580     0.3530 hc         1 H13       0.040200
     49 H25A        -3.3140    -0.2590     1.6260 hc         1 H13       0.040200
     50 H26         -4.3470     1.4210     0.0780 hc         1 H13       0.036700
     51 H26A        -4.3920     0.2190    -1.1920 hc         1 H13       0.036700
     52 H27         -5.8880    -1.2120     0.2250 hc         1 H13       0.038200
     53 H27A        -5.8540     0.0030     1.4830 hc         1 H13       0.038200
     54 H28         -6.8800     1.6610    -0.0910 hc         1 H13       0.036700
     55 H28A        -6.9100     0.4450    -1.3490 hc         1 H13       0.036700
     56 H29         -8.4170    -0.9750     0.0650 hc         1 H13       0.037200
     57 H29A        -8.3910     0.2460     1.3170 hc         1 H13       0.037200
     58 H30         -9.4080     1.8950    -0.2710 hc         1 H13       0.036700
     59 H30A        -9.4310     0.6740    -1.5240 hc         1 H13       0.036700
     60 H31        -10.9450    -0.7410    -0.1160 hc         1 H13       0.037200
     61 H31A       -10.9250     0.4820     1.1350 hc         1 H13       0.037200
     62 H32        -11.9370     2.1260    -0.4570 hc         1 H13       0.036700
     63 H32A       -11.9550     0.9050    -1.7080 hc         1 H13       0.036700
     64 H33        -13.5070    -0.5050    -0.3170 hc         1 H13       0.031367
     65 H33A       -13.4900     0.7240     0.9420 hc         1 H13       0.031367
     66 H33B       -14.1990     1.0840    -0.6290 hc         1 H13       0.031367
@<TRIPOS>BOND
     1     1     2 2   
     2     2     3 1   
     3     2    16 1   
     4     3     4 1   
     5     3    28 1   
     6     4     5 1   
     7     4     7 1   
     8     4    29 1   
     9     5     6 1   
    10     5    30 1   
    11     5    31 1   
    12     6    32 1   
    13     7     8 1   
    14     7    33 1   
    15     7    34 1   
    16     8     9 1   
    17     8    15 1   
    18     8    35 1   
    19     9    10 ar  
    20     9    14 ar  
    21    10    11 ar  
    22    10    36 1   
    23    11    12 ar  
    24    11    37 1   
    25    12    13 ar  
    26    12    38 1   
    27    13    14 ar  
    28    13    39 1   
    29    14    40 1   
    30    15    41 1   
    31    16    17 1   
    32    16    42 1   
    33    16    43 1   
    34    17    18 1   
    35    17    44 1   
    36    17    45 1   
    37    18    19 1   
    38    18    46 1   
    39    18    47 1   
    40    19    20 1   
    41    19    48 1   
    42    19    49 1   
    43    20    21 1   
    44    20    50 1   
    45    20    51 1   
    46    21    22 1   
    47    21    52 1   
    48    21    53 1   
    49    22    23 1   
    50    22    54 1   
    51    22    55 1   
    52    23    24 1   
    53    23    56 1   
    54    23    57 1   
    55    24    25 1   
    56    24    58 1   
    57    24    59 1   
    58    25    26 1   
    59    25    60 1   
    60    25    61 1   
    61    26    27 1   
    62    26    62 1   
    63    26    63 1   
    64    27    64 1   
    65    27    65 1   
    66    27    66 1   
@<TRIPOS>SUBSTRUCTURE
     1 H13         1 TEMP              0 ****  ****    0 ROOT
