@<TRIPOS>MOLECULE
H13
   66    66     1     0     0
SMALL
No Charge or Current Charge


@<TRIPOS>ATOM
      1 O21          2.0140    -1.1250     2.8390 o          1 H13      -0.602100
      2 C21          1.8560    -0.5950     1.7480 c          1 H13       0.601100
      3 N2           2.7400    -0.7670     0.7090 ns         1 H13      -0.506900
      4 C2           3.9150    -1.6500     0.7450 c3         1 H13       0.115700
      5 C1           3.5400    -3.0970     0.3150 c3         1 H13       0.140600
      6 O1           3.0130    -3.1300    -1.0250 oh         1 H13      -0.668000
      7 C3           5.0790    -1.0560    -0.0890 c3         1 H13      -0.122400
      8 C4           5.6120     0.2990     0.4390 c3         1 H13       0.217600
      9 C5           6.5830     0.9790    -0.5280 ca         1 H13      -0.111300
     10 C6           6.3760     2.3260    -0.8930 ca         1 H13      -0.101500
     11 C7           7.2590     2.9690    -1.7780 ca         1 H13      -0.108500
     12 C8           8.3590     2.2730    -2.3050 ca         1 H13      -0.109000
     13 C9           8.5770     0.9330    -1.9450 ca         1 H13      -0.108500
     14 C10          7.6950     0.2880    -1.0600 ca         1 H13      -0.101500
     15 O4           6.2690     0.0950     1.6920 oh         1 H13      -0.641000
     16 C22          0.6790     0.3390     1.4480 c3         1 H13      -0.157400
     17 C23         -0.6390    -0.4500     1.2670 c3         1 H13      -0.065400
     18 C24         -1.8490     0.4580     0.9560 c3         1 H13      -0.076400
     19 C25         -3.1650    -0.3280     0.7760 c3         1 H13      -0.074400
     20 C26         -4.3740     0.5810     0.4650 c3         1 H13      -0.074400
     21 C27         -5.6910    -0.2060     0.2850 c3         1 H13      -0.074400
     22 C28         -6.9010     0.7040    -0.0250 c3         1 H13      -0.074400
     23 C29         -8.2180    -0.0830    -0.2050 c3         1 H13      -0.074400
     24 C30         -9.4270     0.8270    -0.5150 c3         1 H13      -0.074400
     25 C31        -10.7440     0.0410    -0.6950 c3         1 H13      -0.075400
     26 C32        -11.9530     0.9500    -1.0050 c3         1 H13      -0.074400
     27 C33        -13.2680     0.1660    -1.1850 c3         1 H13      -0.088100
     28 HN2          2.5030    -0.3230    -0.1680 hn         1 H13       0.316500
     29 H2           4.2630    -1.7140     1.7860 h1         1 H13       0.092700
     30 H1           4.4310    -3.7340     0.3890 h1         1 H13       0.030200
     31 H1A          2.7960    -3.4920     1.0200 h1         1 H13       0.030200
     32 HO1          2.7810    -4.0650    -1.2200 ho         1 H13       0.446000
     33 H3           5.8980    -1.7830    -0.1200 hc         1 H13       0.059200
     34 H3A          4.7420    -0.9210    -1.1250 hc         1 H13       0.059200
     35 H4           4.7500     0.9670     0.5790 h1         1 H13       0.081700
     36 H6           5.5290     2.8780    -0.4920 ha         1 H13       0.110000
     37 H7           7.0900     4.0070    -2.0550 ha         1 H13       0.112000
     38 H8           9.0420     2.7710    -2.9900 ha         1 H13       0.113000
     39 H9           9.4300     0.3940    -2.3500 ha         1 H13       0.112000
     40 H10          7.8830    -0.7480    -0.7900 ha         1 H13       0.110000
     41 HO4          7.2170    -0.0420     1.4840 ho         1 H13       0.437000
     42 H22          0.5570     1.0310     2.2890 hc         1 H13       0.055200
     43 H22A         0.8730     0.9030     0.5280 hc         1 H13       0.055200
     44 H23         -0.5150    -1.1770     0.4540 hc         1 H13       0.053700
     45 H23A        -0.8450    -1.0250     2.1800 hc         1 H13       0.053700
     46 H24         -1.9720     1.1850     1.7700 hc         1 H13       0.035700
     47 H24A        -1.6440     1.0310     0.0430 hc         1 H13       0.035700
     48 H25         -3.0430    -1.0550    -0.0370 hc         1 H13       0.040200
     49 H25A        -3.3710    -0.9010     1.6890 hc         1 H13       0.040200
     50 H26         -4.4970     1.3070     1.2780 hc         1 H13       0.036700
     51 H26A        -4.1690     1.1530    -0.4480 hc         1 H13       0.036700
     52 H27         -5.5690    -0.9320    -0.5280 hc         1 H13       0.038200
     53 H27A        -5.8970    -0.7780     1.1980 hc         1 H13       0.038200
     54 H28         -7.0230     1.4300     0.7880 hc         1 H13       0.036700
     55 H28A        -6.6950     1.2760    -0.9380 hc         1 H13       0.036700
     56 H29         -8.0950    -0.8090    -1.0190 hc         1 H13       0.037200
     57 H29A        -8.4230    -0.6550     0.7080 hc         1 H13       0.037200
     58 H30         -9.5490     1.5530     0.2980 hc         1 H13       0.036700
     59 H30A        -9.2220     1.4000    -1.4280 hc         1 H13       0.036700
     60 H31        -10.6220    -0.6850    -1.5090 hc         1 H13       0.037200
     61 H31A       -10.9490    -0.5320     0.2180 hc         1 H13       0.037200
     62 H32        -12.0800     1.6760    -0.1930 hc         1 H13       0.036700
     63 H32A       -11.7530     1.5230    -1.9190 hc         1 H13       0.036700
     64 H33        -13.1850    -0.5460    -2.0150 hc         1 H13       0.031367
     65 H33A       -13.5150    -0.3910    -0.2730 hc         1 H13       0.031367
     66 H33B       -14.0950     0.8520    -1.4020 hc         1 H13       0.031367
@<TRIPOS>BOND
     1     1     2 2   
     2     2     3 1   
     3     2    16 1   
     4     3     4 1   
     5     3    28 1   
     6     4     5 1   
     7     4     7 1   
     8     4    29 1   
     9     5     6 1   
    10     5    30 1   
    11     5    31 1   
    12     6    32 1   
    13     7     8 1   
    14     7    33 1   
    15     7    34 1   
    16     8     9 1   
    17     8    15 1   
    18     8    35 1   
    19     9    10 ar  
    20     9    14 ar  
    21    10    11 ar  
    22    10    36 1   
    23    11    12 ar  
    24    11    37 1   
    25    12    13 ar  
    26    12    38 1   
    27    13    14 ar  
    28    13    39 1   
    29    14    40 1   
    30    15    41 1   
    31    16    17 1   
    32    16    42 1   
    33    16    43 1   
    34    17    18 1   
    35    17    44 1   
    36    17    45 1   
    37    18    19 1   
    38    18    46 1   
    39    18    47 1   
    40    19    20 1   
    41    19    48 1   
    42    19    49 1   
    43    20    21 1   
    44    20    50 1   
    45    20    51 1   
    46    21    22 1   
    47    21    52 1   
    48    21    53 1   
    49    22    23 1   
    50    22    54 1   
    51    22    55 1   
    52    23    24 1   
    53    23    56 1   
    54    23    57 1   
    55    24    25 1   
    56    24    58 1   
    57    24    59 1   
    58    25    26 1   
    59    25    60 1   
    60    25    61 1   
    61    26    27 1   
    62    26    62 1   
    63    26    63 1   
    64    27    64 1   
    65    27    65 1   
    66    27    66 1   
@<TRIPOS>SUBSTRUCTURE
     1 H13         1 TEMP              0 ****  ****    0 ROOT
