@<TRIPOS>MOLECULE
H14
   23    23     1     0     0
SMALL
No Charge or Current Charge


@<TRIPOS>ATOM
      1 N           81.3840     7.4090    58.0810 n8         1 H14      -0.994200
      2 CA          80.6470     6.1440    58.4990 c3         1 H14       0.023500
      3 C           81.5230     5.0070    59.1620 c          1 H14       0.705000
      4 O           80.9650     4.2110    59.9050 o          1 H14      -0.730500
      5 CB          79.8010     5.5070    57.3460 c3         1 H14       0.226600
      6 OB          80.6070     5.3180    56.1690 oh         1 H14      -0.635000
      7 CG          78.5430     6.3160    57.0020 ca         1 H14      -0.077300
      8 CD1         77.2830     5.8740    57.4570 ca         1 H14      -0.099500
      9 CD2         78.6140     7.4960    56.2290 ca         1 H14      -0.099500
     10 CE1         76.1170     6.5970    57.1470 ca         1 H14      -0.124500
     11 CE2         77.4470     8.2180    55.9200 ca         1 H14      -0.124500
     12 CZ          76.1990     7.7690    56.3780 ca         1 H14      -0.135000
     13 OXT         82.7400     5.0370    59.0170 o          1 H14      -0.730500
     14 HN1         82.0590     7.6490    58.8170 hn         1 H14       0.387500
     15 HN2         81.9880     7.1570    57.2890 hn         1 H14       0.387500
     16 HA          79.9410     6.4470    59.2840 h1         1 H14       0.038700
     17 HB          79.4580     4.5240    57.7000 h1         1 H14       0.054700
     18 HOB         79.9910     5.0510    55.4550 ho         1 H14       0.412000
     19 HD1         77.2040     4.9680    58.0550 ha         1 H14       0.117500
     20 HD2         79.5750     7.8560    55.8700 ha         1 H14       0.117500
     21 HE1         75.1510     6.2480    57.5040 ha         1 H14       0.093500
     22 HE2         77.5130     9.1260    55.3250 ha         1 H14       0.093500
     23 HZ          75.2970     8.3270    56.1390 ha         1 H14       0.091000
@<TRIPOS>BOND
     1     1     2 1   
     2     1    14 1   
     3     1    15 1   
     4     2     3 1   
     5     2     5 1   
     6     2    16 1   
     7     3     4 1   
     8     3    13 1   
     9     5     6 1   
    10     5     7 1   
    11     5    17 1   
    12     6    18 1   
    13     7     8 ar  
    14     7     9 ar  
    15     8    10 ar  
    16     8    19 1   
    17     9    11 ar  
    18     9    20 1   
    19    10    12 ar  
    20    10    21 1   
    21    11    12 ar  
    22    11    22 1   
    23    12    23 1   
@<TRIPOS>SUBSTRUCTURE
     1 H14         1 TEMP              0 ****  ****    0 ROOT
