@<TRIPOS>MOLECULE
H14
   23    23     1     0     0
SMALL
bcc


@<TRIPOS>ATOM
      1 N           80.9980     7.3610    58.2900 n8         1 H14      -0.883800
      2 CA          80.5320     6.0050    58.5140 c3         1 H14       0.023500
      3 C           81.6220     4.9790    58.9430 c          1 H14       0.915600
      4 O           81.2040     3.8410    59.2410 o          1 H14      -0.835800
      5 CB          79.7910     5.4720    57.2800 c3         1 H14       0.203400
      6 OB          80.7260     5.4130    56.2270 oh         1 H14      -0.572800
      7 CG          78.5790     6.3100    56.9480 ca         1 H14      -0.077300
      8 CD1         77.3950     6.0960    57.6520 ca         1 H14      -0.117500
      9 CD2         78.5990     7.3020    55.9720 ca         1 H14      -0.117500
     10 CE1         76.2630     6.8560    57.3980 ca         1 H14      -0.142500
     11 CE2         77.4650     8.0610    55.7090 ca         1 H14      -0.142500
     12 CZ          76.2940     7.8440    56.4220 ca         1 H14      -0.153000
     13 OXT         82.8030     5.3720    58.9620 o          1 H14      -0.835800
     14 HN1         81.2660     7.7590    59.1810 hn         1 H14       0.332300
     15 HN2         81.8620     7.3180    57.7640 hn         1 H14       0.332300
     16 HA          79.7900     6.0370    59.3190 h1         1 H14       0.038700
     17 HB          79.4340     4.4660    57.5370 h1         1 H14       0.054700
     18 HOB         80.2970     5.0240    55.4580 ho         1 H14       0.373000
     19 HD1         77.3580     5.3190    58.4080 ha         1 H14       0.135500
     20 HD2         79.5040     7.4860    55.4070 ha         1 H14       0.135500
     21 HE1         75.3540     6.6710    57.9560 ha         1 H14       0.111500
     22 HE2         77.4990     8.8280    54.9450 ha         1 H14       0.111500
     23 HZ          75.4120     8.4370    56.2160 ha         1 H14       0.109000
@<TRIPOS>BOND
     1     1     2 1   
     2     1    14 1   
     3     1    15 1   
     4     2     3 1   
     5     2     5 1   
     6     2    16 1   
     7     3     4 1   
     8     3    13 1   
     9     5     6 1   
    10     5     7 1   
    11     5    17 1   
    12     6    18 1   
    13     7     8 ar  
    14     7     9 ar  
    15     8    10 ar  
    16     8    19 1   
    17     9    11 ar  
    18     9    20 1   
    19    10    12 ar  
    20    10    21 1   
    21    11    12 ar  
    22    11    22 1   
    23    12    23 1   
@<TRIPOS>SUBSTRUCTURE
     1 H14         1 TEMP              0 ****  ****    0 ROOT
