@<TRIPOS>MOLECULE
H15
   72    72     1     0     0
SMALL
No Charge or Current Charge


@<TRIPOS>ATOM
      1 O21          3.1830    -1.1630     2.8450 o          1 H15      -0.603100
      2 C21          2.9850    -0.6290     1.7630 c          1 H15       0.602100
      3 N2           3.8400    -0.7840     0.6970 ns         1 H15      -0.505900
      4 C2           5.0260    -1.6530     0.6920 c3         1 H15       0.116700
      5 C1           4.6540    -3.1020     0.2650 c3         1 H15       0.140600
      6 O1           4.0860    -3.1340    -1.0580 oh         1 H15      -0.669000
      7 C3           6.1560    -1.0400    -0.1750 c3         1 H15      -0.123400
      8 C4           6.6890     0.3180     0.3440 c3         1 H15       0.217600
      9 C5           7.6230     1.0140    -0.6480 ca         1 H15      -0.111300
     10 C6           7.3890     2.3590    -1.0010 ca         1 H15      -0.101500
     11 C7           8.2370     3.0170    -1.9090 ca         1 H15      -0.108500
     12 C8           9.3290     2.3370    -2.4710 ca         1 H15      -0.108000
     13 C9           9.5740     0.9980    -2.1230 ca         1 H15      -0.108500
     14 C10          8.7270     0.3390    -1.2160 ca         1 H15      -0.101500
     15 O4           7.3860     0.1160     1.5760 oh         1 H15      -0.640000
     16 C22          1.7890     0.2930     1.5040 c3         1 H15      -0.156400
     17 C23          0.4750    -0.5110     1.3590 c3         1 H15      -0.065400
     18 C24         -0.7540     0.3850     1.0900 c3         1 H15      -0.076400
     19 C25         -2.0660    -0.4170     0.9450 c3         1 H15      -0.074400
     20 C26         -3.2950     0.4800     0.6760 c3         1 H15      -0.074400
     21 C27         -4.6070    -0.3220     0.5310 c3         1 H15      -0.074400
     22 C28         -5.8360     0.5750     0.2630 c3         1 H15      -0.074400
     23 C29         -7.1480    -0.2260     0.1190 c3         1 H15      -0.073400
     24 C30         -8.3770     0.6700    -0.1490 c3         1 H15      -0.074400
     25 C31         -9.6900    -0.1310    -0.2940 c3         1 H15      -0.074400
     26 C32        -10.9180     0.7660    -0.5610 c3         1 H15      -0.074400
     27 C33        -12.2310    -0.0350    -0.7050 c3         1 H15      -0.075400
     28 C34        -13.4600     0.8610    -0.9730 c3         1 H15      -0.075400
     29 C35        -14.7700     0.0620    -1.1170 c3         1 H15      -0.088100
     30 HN2          3.5720    -0.3370    -0.1700 hn         1 H15       0.316500
     31 H2           5.4060    -1.7180     1.7210 h1         1 H15       0.091700
     32 H1           5.5550    -3.7280     0.3080 h1         1 H15       0.030200
     33 H1A          3.9380    -3.5090     0.9910 h1         1 H15       0.030200
     34 HO1          3.8600    -4.0710    -1.2510 ho         1 H15       0.446000
     35 H3           6.9820    -1.7580    -0.2340 hc         1 H15       0.059200
     36 H3A          5.7860    -0.9050    -1.1980 hc         1 H15       0.059200
     37 H4           5.8250     0.9760     0.5140 h1         1 H15       0.080700
     38 H6           6.5480     2.9000    -0.5720 ha         1 H15       0.109000
     39 H7           8.0470     4.0540    -2.1760 ha         1 H15       0.112000
     40 H8           9.9860     2.8460    -3.1740 ha         1 H15       0.113000
     41 H9          10.4210     0.4710    -2.5570 ha         1 H15       0.112000
     42 H10          8.9360    -0.6960    -0.9570 ha         1 H15       0.109000
     43 HO4          8.3290    -0.0130     1.3390 ho         1 H15       0.437000
     44 H22          1.6840     0.9790     2.3530 hc         1 H15       0.055200
     45 H22A         1.9490     0.8650     0.5820 hc         1 H15       0.055200
     46 H23          0.5830    -1.2320     0.5380 hc         1 H15       0.054200
     47 H23A         0.3040    -1.0930     2.2730 hc         1 H15       0.054200
     48 H24         -0.8610     1.1050     1.9110 hc         1 H15       0.035700
     49 H24A        -0.5830     0.9650     0.1740 hc         1 H15       0.035700
     50 H25         -1.9590    -1.1370     0.1240 hc         1 H15       0.040200
     51 H25A        -2.2370    -0.9970     1.8600 hc         1 H15       0.040200
     52 H26         -3.4010     1.2000     1.4970 hc         1 H15       0.036700
     53 H26A        -3.1240     1.0600    -0.2390 hc         1 H15       0.036700
     54 H27         -4.5010    -1.0420    -0.2890 hc         1 H15       0.038200
     55 H27A        -4.7780    -0.9020     1.4470 hc         1 H15       0.038200
     56 H28         -5.9420     1.2950     1.0840 hc         1 H15       0.036700
     57 H28A        -5.6650     1.1550    -0.6530 hc         1 H15       0.036700
     58 H29         -7.0420    -0.9470    -0.7020 hc         1 H15       0.037200
     59 H29A        -7.3190    -0.8070     1.0340 hc         1 H15       0.037200
     60 H30         -8.4830     1.3910     0.6710 hc         1 H15       0.036700
     61 H30A        -8.2070     1.2500    -1.0650 hc         1 H15       0.036700
     62 H31         -9.5840    -0.8510    -1.1140 hc         1 H15       0.037200
     63 H31A        -9.8600    -0.7110     0.6220 hc         1 H15       0.037200
     64 H32        -11.0240     1.4860     0.2590 hc         1 H15       0.036700
     65 H32A       -10.7480     1.3460    -1.4770 hc         1 H15       0.036700
     66 H33        -12.1250    -0.7560    -1.5260 hc         1 H15       0.037200
     67 H33A       -12.4010    -0.6150     0.2100 hc         1 H15       0.037200
     68 H34        -13.5700     1.5820    -0.1530 hc         1 H15       0.036700
     69 H34A       -13.2940     1.4410    -1.8890 hc         1 H15       0.036700
     70 H35        -14.9820    -0.5030    -0.2010 hc         1 H15       0.031367
     71 H35A       -15.6110     0.7400    -1.3050 hc         1 H15       0.031367
     72 H35B       -14.7040    -0.6440    -1.9530 hc         1 H15       0.031367
@<TRIPOS>BOND
     1     1     2 2   
     2     2     3 1   
     3     2    16 1   
     4     3     4 1   
     5     3    30 1   
     6     4     5 1   
     7     4     7 1   
     8     4    31 1   
     9     5     6 1   
    10     5    32 1   
    11     5    33 1   
    12     6    34 1   
    13     7     8 1   
    14     7    35 1   
    15     7    36 1   
    16     8     9 1   
    17     8    15 1   
    18     8    37 1   
    19     9    10 ar  
    20     9    14 ar  
    21    10    11 ar  
    22    10    38 1   
    23    11    12 ar  
    24    11    39 1   
    25    12    13 ar  
    26    12    40 1   
    27    13    14 ar  
    28    13    41 1   
    29    14    42 1   
    30    15    43 1   
    31    16    17 1   
    32    16    44 1   
    33    16    45 1   
    34    17    18 1   
    35    17    46 1   
    36    17    47 1   
    37    18    19 1   
    38    18    48 1   
    39    18    49 1   
    40    19    20 1   
    41    19    50 1   
    42    19    51 1   
    43    20    21 1   
    44    20    52 1   
    45    20    53 1   
    46    21    22 1   
    47    21    54 1   
    48    21    55 1   
    49    22    23 1   
    50    22    56 1   
    51    22    57 1   
    52    23    24 1   
    53    23    58 1   
    54    23    59 1   
    55    24    25 1   
    56    24    60 1   
    57    24    61 1   
    58    25    26 1   
    59    25    62 1   
    60    25    63 1   
    61    26    27 1   
    62    26    64 1   
    63    26    65 1   
    64    27    28 1   
    65    27    66 1   
    66    27    67 1   
    67    28    29 1   
    68    28    68 1   
    69    28    69 1   
    70    29    70 1   
    71    29    71 1   
    72    29    72 1   
@<TRIPOS>SUBSTRUCTURE
     1 H15         1 TEMP              0 ****  ****    0 ROOT
