@<TRIPOS>MOLECULE
H15
   72    72     1     0     0
SMALL
bcc


@<TRIPOS>ATOM
      1 O21          2.8830    -1.4600     1.7600 o          1 H15      -0.603100
      2 C21          2.8670    -1.0290     0.6140 c          1 H15       0.669100
      3 N2           3.9080    -1.1430    -0.2330 ns         1 H15      -0.572900
      4 C2           5.1560    -1.8060     0.0810 c3         1 H15       0.116700
      5 C1           5.2490    -3.1550    -0.6160 c3         1 H15       0.117400
      6 O1           5.2260    -2.9550    -2.0110 oh         1 H15      -0.606800
      7 C3           6.3450    -0.9070    -0.2580 c3         1 H15      -0.123400
      8 C4           6.3690     0.4070     0.5240 c3         1 H15       0.194400
      9 C5           7.5500     1.2480     0.0860 ca         1 H15      -0.111300
     10 C6           7.4350     2.0590    -1.0400 ca         1 H15      -0.119500
     11 C7           8.5110     2.8110    -1.4910 ca         1 H15      -0.126500
     12 C8           9.7240     2.7630    -0.8160 ca         1 H15      -0.126000
     13 C9           9.8480     1.9570     0.3080 ca         1 H15      -0.126500
     14 C10          8.7680     1.2070     0.7560 ca         1 H15      -0.119500
     15 O4           6.3340     0.1960     1.9160 oh         1 H15      -0.577800
     16 C22          1.6680    -0.2970     0.0480 c3         1 H15      -0.156400
     17 C23          0.3410    -0.8160     0.5870 c3         1 H15      -0.065400
     18 C24         -0.8520    -0.0770    -0.0050 c3         1 H15      -0.076400
     19 C25         -2.1860    -0.5710     0.5410 c3         1 H15      -0.074400
     20 C26         -3.3840     0.1450    -0.0690 c3         1 H15      -0.074400
     21 C27         -4.7210    -0.3520     0.4640 c3         1 H15      -0.074400
     22 C28         -5.9150     0.3570    -0.1610 c3         1 H15      -0.074400
     23 C29         -7.2580    -0.1360     0.3630 c3         1 H15      -0.073400
     24 C30         -8.4450     0.5720    -0.2760 c3         1 H15      -0.074400
     25 C31         -9.7930     0.0870     0.2420 c3         1 H15      -0.074400
     26 C32        -10.9760     0.7930    -0.4080 c3         1 H15      -0.074400
     27 C33        -12.3260     0.3060     0.1010 c3         1 H15      -0.075400
     28 C34        -13.5070     1.0100    -0.5590 c3         1 H15      -0.075400
     29 C35        -14.8530     0.5090    -0.0540 c3         1 H15      -0.088100
     30 HN2          3.7830    -0.8240    -1.1800 hn         1 H15       0.316500
     31 H2           5.1550    -2.0070     1.1520 h1         1 H15       0.091700
     32 H1           6.1720    -3.6510    -0.2900 h1         1 H15       0.030200
     33 H1A          4.4110    -3.7790    -0.2840 h1         1 H15       0.030200
     34 HO1          5.2210    -3.8160    -2.4390 ho         1 H15       0.407000
     35 H3           7.2700    -1.4600    -0.0580 hc         1 H15       0.059200
     36 H3A          6.3540    -0.6810    -1.3280 hc         1 H15       0.059200
     37 H4           5.4570     0.9640     0.2890 h1         1 H15       0.080700
     38 H6           6.4890     2.1080    -1.5690 ha         1 H15       0.127000
     39 H7           8.4000     3.4410    -2.3640 ha         1 H15       0.130000
     40 H8          10.5630     3.3530    -1.1580 ha         1 H15       0.131000
     41 H9          10.7890     1.9130     0.8420 ha         1 H15       0.130000
     42 H10          8.8890     0.5930     1.6410 ha         1 H15       0.127000
     43 HO4          6.9730    -0.4860     2.1480 ho         1 H15       0.398000
     44 H22          1.7780     0.7620     0.3040 hc         1 H15       0.055200
     45 H22A         1.6730    -0.3450    -1.0440 hc         1 H15       0.055200
     46 H23          0.2480    -1.8850     0.3700 hc         1 H15       0.054200
     47 H23A         0.3240    -0.7200     1.6750 hc         1 H15       0.054200
     48 H24         -0.7550     0.9970     0.1930 hc         1 H15       0.035700
     49 H24A        -0.8490    -0.1850    -1.0950 hc         1 H15       0.035700
     50 H25         -2.2750    -1.6480     0.3590 hc         1 H15       0.040200
     51 H25A        -2.2030    -0.4450     1.6300 hc         1 H15       0.040200
     52 H26         -3.2960     1.2210     0.1150 hc         1 H15       0.036700
     53 H26A        -3.3610     0.0230    -1.1580 hc         1 H15       0.036700
     54 H27         -4.8050    -1.4300     0.2870 hc         1 H15       0.038200
     55 H27A        -4.7510    -0.2230     1.5520 hc         1 H15       0.038200
     56 H28         -5.8290     1.4350     0.0170 hc         1 H15       0.036700
     57 H28A        -5.8800     0.2300    -1.2490 hc         1 H15       0.036700
     58 H29         -7.3410    -1.2150     0.1880 hc         1 H15       0.037200
     59 H29A        -7.2970    -0.0040     1.4500 hc         1 H15       0.037200
     60 H30         -8.3580     1.6510    -0.1070 hc         1 H15       0.036700
     61 H30A        -8.4050     0.4350    -1.3630 hc         1 H15       0.036700
     62 H31         -9.8790    -0.9920     0.0760 hc         1 H15       0.037200
     63 H31A        -9.8380     0.2300     1.3280 hc         1 H15       0.037200
     64 H32        -10.8910     1.8730    -0.2380 hc         1 H15       0.036700
     65 H32A       -10.9260     0.6550    -1.4940 hc         1 H15       0.036700
     66 H33        -12.4090    -0.7740    -0.0640 hc         1 H15       0.037200
     67 H33A       -12.3800     0.4520     1.1850 hc         1 H15       0.037200
     68 H34        -13.4280     2.0870    -0.3860 hc         1 H15       0.036700
     69 H34A       -13.4480     0.8720    -1.6430 hc         1 H15       0.036700
     70 H35        -14.9560     0.6700     1.0210 hc         1 H15       0.031367
     71 H35A       -15.6820     1.0190    -0.5450 hc         1 H15       0.031367
     72 H35B       -14.9680    -0.5620    -0.2350 hc         1 H15       0.031367
@<TRIPOS>BOND
     1     1     2 2   
     2     2     3 1   
     3     2    16 1   
     4     3     4 1   
     5     3    30 1   
     6     4     5 1   
     7     4     7 1   
     8     4    31 1   
     9     5     6 1   
    10     5    32 1   
    11     5    33 1   
    12     6    34 1   
    13     7     8 1   
    14     7    35 1   
    15     7    36 1   
    16     8     9 1   
    17     8    15 1   
    18     8    37 1   
    19     9    10 ar  
    20     9    14 ar  
    21    10    11 ar  
    22    10    38 1   
    23    11    12 ar  
    24    11    39 1   
    25    12    13 ar  
    26    12    40 1   
    27    13    14 ar  
    28    13    41 1   
    29    14    42 1   
    30    15    43 1   
    31    16    17 1   
    32    16    44 1   
    33    16    45 1   
    34    17    18 1   
    35    17    46 1   
    36    17    47 1   
    37    18    19 1   
    38    18    48 1   
    39    18    49 1   
    40    19    20 1   
    41    19    50 1   
    42    19    51 1   
    43    20    21 1   
    44    20    52 1   
    45    20    53 1   
    46    21    22 1   
    47    21    54 1   
    48    21    55 1   
    49    22    23 1   
    50    22    56 1   
    51    22    57 1   
    52    23    24 1   
    53    23    58 1   
    54    23    59 1   
    55    24    25 1   
    56    24    60 1   
    57    24    61 1   
    58    25    26 1   
    59    25    62 1   
    60    25    63 1   
    61    26    27 1   
    62    26    64 1   
    63    26    65 1   
    64    27    28 1   
    65    27    66 1   
    66    27    67 1   
    67    28    29 1   
    68    28    68 1   
    69    28    69 1   
    70    29    70 1   
    71    29    71 1   
    72    29    72 1   
@<TRIPOS>SUBSTRUCTURE
     1 H15         1 TEMP              0 ****  ****    0 ROOT
