@<TRIPOS>MOLECULE
H16
   44    46     1     0     0
SMALL
No Charge or Current Charge


@<TRIPOS>ATOM
      1 CA           2.1610    -0.1320     0.2100 c6         1 H16       0.086300
      2 CB           2.3730     1.1820    -0.5880 c6         1 H16      -0.069900
      3 CC           3.3540     2.1350     0.1400 c6         1 H16      -0.073400
      4 CD           4.7070     1.4370     0.4240 c6         1 H16      -0.076400
      5 CE           4.5010     0.1240     1.2200 c6         1 H16      -0.073400
      6 CF           3.5180    -0.8250     0.4880 c6         1 H16      -0.069900
      7 N1          -2.8340     1.1300    -0.7590 ns         1 H16      -0.370100
      8 C6          -2.2040     0.9260    -1.9630 c          1 H16       0.555200
      9 O2          -2.6830     1.3890    -2.9890 o          1 H16      -0.542000
     10 C5          -0.9410     0.1250    -1.8940 cc         1 H16      -0.119400
     11 C4          -0.5210    -0.3480    -0.6540 cd         1 H16       0.110400
     12 S4           0.9890    -1.2810    -0.6470 ss         1 H16      -0.367600
     13 C2          -2.4430     0.6580     0.5020 ca         1 H16       0.094600
     14 C3          -1.2720    -0.1100     0.5900 ca         1 H16      -0.104800
     15 C7          -0.8800    -0.6280     1.8440 ca         1 H16      -0.049000
     16 C8          -1.6460    -0.3510     2.9900 ca         1 H16       0.081000
     17 C9          -2.8080     0.4320     2.8940 ca         1 H16      -0.053000
     18 C10         -3.2110     0.9350     1.6450 ca         1 H16      -0.160000
     19 Cl          -1.1480    -0.9930     4.5500 cl         1 H16      -0.196000
     20 C12         -0.6710    -1.3790    -3.9380 c3         1 H16      -0.067400
     21 C13          0.0500    -1.6090    -5.2800 c3         1 H16      -0.088100
     22 HA           1.7080     0.1280     1.1770 h1         1 H16       0.069700
     23 HB1          2.7590     0.9490    -1.5900 hc         1 H16       0.052200
     24 HB2          1.4130     1.6940    -0.7350 hc         1 H16       0.052200
     25 HC1          2.9070     2.4740     1.0850 hc         1 H16       0.042700
     26 HC2          3.5200     3.0350    -0.4680 hc         1 H16       0.042700
     27 HD1          5.3660     2.1140     0.9850 hc         1 H16       0.042200
     28 HD2          5.2170     1.2180    -0.5240 hc         1 H16       0.042200
     29 HE1          4.1140     0.3560     2.2220 hc         1 H16       0.042700
     30 HE2          5.4660    -0.3790     1.3660 hc         1 H16       0.042700
     31 HF1          3.3570    -1.7260     1.0950 hc         1 H16       0.052200
     32 HF2          3.9640    -1.1610    -0.4580 hc         1 H16       0.052200
     33 HN1         -3.6870     1.6730    -0.7990 hn         1 H16       0.330500
     34 H7           0.0040    -1.2490     1.9450 ha         1 H16       0.149000
     35 H9          -3.3970     0.6420     3.7840 ha         1 H16       0.133000
     36 H10         -4.1160     1.5330     1.5680 ha         1 H16       0.125000
     37 H111         0.8580    -0.0980    -3.0900 hc         1 H16       0.065200
     38 H112        -0.4070     0.7680    -3.8950 hc         1 H16       0.065200
     39 H121        -1.7540    -1.3450    -4.1150 hc         1 H16       0.045200
     40 H122        -0.4830    -2.2370    -3.2800 hc         1 H16       0.045200
     41 H131        -0.2970    -2.5390    -5.7460 hc         1 H16       0.033033
     42 H132        -0.1480    -0.7830    -5.9740 hc         1 H16       0.033033
     43 H133         1.1340    -1.6840    -5.1300 hc         1 H16       0.033033
     44 C11         -0.2290    -0.0830    -3.2250 c3         1 H16      -0.037200
@<TRIPOS>BOND
     1     1     2 1   
     2     1     6 1   
     3     1    12 1   
     4     1    22 1   
     5     2     3 1   
     6     2    23 1   
     7     2    24 1   
     8     3     4 1   
     9     3    25 1   
    10     3    26 1   
    11     4     5 1   
    12     4    27 1   
    13     4    28 1   
    14     5     6 1   
    15     5    29 1   
    16     5    30 1   
    17     6    31 1   
    18     6    32 1   
    19     7     8 1   
    20     7    13 1   
    21     7    33 1   
    22     8     9 2   
    23     8    10 1   
    24    10    11 2   
    25    10    44 1   
    26    11    12 1   
    27    11    14 1   
    28    13    14 ar  
    29    13    18 ar  
    30    14    15 ar  
    31    15    16 ar  
    32    15    34 1   
    33    16    17 ar  
    34    16    19 1   
    35    17    18 ar  
    36    17    35 1   
    37    18    36 1   
    38    20    21 1   
    39    20    39 1   
    40    20    40 1   
    41    20    44 1   
    42    21    41 1   
    43    21    42 1   
    44    21    43 1   
    45    37    44 1   
    46    38    44 1   
@<TRIPOS>SUBSTRUCTURE
     1 H16         1 TEMP              0 ****  ****    0 ROOT
