@<TRIPOS>MOLECULE
H16
   44    46     1     0     0
SMALL
abcg2


@<TRIPOS>ATOM
      1 CA           2.1390    -0.0600     0.2230 c6         1 H16       0.086300
      2 CB           2.3990     1.1530    -0.6560 c6         1 H16      -0.069900
      3 CC           3.3740     2.1060     0.0320 c6         1 H16      -0.073400
      4 CD           4.6800     1.3990     0.3800 c6         1 H16      -0.076400
      5 CE           4.4240     0.1590     1.2300 c6         1 H16      -0.073400
      6 CF           3.4350    -0.7920     0.5570 c6         1 H16      -0.069900
      7 N1          -2.8210     1.1080    -0.7350 ns         1 H16      -0.370100
      8 C6          -2.1920     0.8920    -1.9270 c          1 H16       0.555200
      9 O2          -2.6650     1.3240    -2.9690 o          1 H16      -0.542000
     10 C5          -0.9280     0.1450    -1.8590 cc         1 H16      -0.119400
     11 C4          -0.4870    -0.3370    -0.6670 cd         1 H16       0.110400
     12 S4           1.0190    -1.2730    -0.5860 ss         1 H16      -0.367600
     13 C2          -2.4130     0.6310     0.4800 ca         1 H16       0.094600
     14 C3          -1.2400    -0.1300     0.5540 ca         1 H16      -0.104800
     15 C7          -0.8620    -0.6560     1.7960 ca         1 H16      -0.049000
     16 C8          -1.6160    -0.3960     2.9160 ca         1 H16       0.081000
     17 C9          -2.7710     0.3820     2.8450 ca         1 H16      -0.053000
     18 C10         -3.1680     0.8890     1.6280 ca         1 H16      -0.160000
     19 CL          -1.1290    -1.0500     4.4450 cl         1 H16      -0.196000
     20 C12         -0.6770    -1.3290    -3.8790 c3         1 H16      -0.067400
     21 C13          0.0580    -1.5360    -5.1940 c3         1 H16      -0.088100
     22 HA           1.6600     0.2600     1.1540 h1         1 H16       0.069700
     23 HB1          2.8190     0.8210    -1.6110 hc         1 H16       0.052200
     24 HB2          1.4630     1.6680    -0.8830 hc         1 H16       0.052200
     25 HC1          2.9150     2.4960     0.9460 hc         1 H16       0.042700
     26 HC2          3.5640     2.9660    -0.6130 hc         1 H16       0.042700
     27 HD1          5.3510     2.0820     0.9060 hc         1 H16       0.042200
     28 HD2          5.1910     1.1070    -0.5430 hc         1 H16       0.042200
     29 HE1          4.0270     0.4600     2.2050 hc         1 H16       0.042700
     30 HE2          5.3590    -0.3700     1.4250 hc         1 H16       0.042700
     31 HF1          3.2320    -1.6470     1.2060 hc         1 H16       0.052200
     32 HF2          3.8770    -1.1850    -0.3650 hc         1 H16       0.052200
     33 HN1         -3.6780     1.6440    -0.7730 hn         1 H16       0.330500
     34 H7           0.0190    -1.2800     1.8640 ha         1 H16       0.149000
     35 H9          -3.3560     0.5810     3.7320 ha         1 H16       0.133000
     36 H10         -4.0690     1.4860     1.5600 ha         1 H16       0.125000
     37 H111         0.8550    -0.1140    -2.9850 hc         1 H16       0.065200
     38 H112        -0.3930     0.8050    -3.8090 hc         1 H16       0.065200
     39 H121        -1.7540    -1.2800    -4.0590 hc         1 H16       0.045200
     40 H122        -0.5130    -2.1880    -3.2230 hc         1 H16       0.045200
     41 H131        -0.2840    -2.4390    -5.7010 hc         1 H16       0.033033
     42 H132        -0.0990    -0.6950    -5.8720 hc         1 H16       0.033033
     43 H133         1.1330    -1.6330    -5.0330 hc         1 H16       0.033033
     44 C11         -0.2190    -0.0560    -3.1610 c3         1 H16      -0.037200
@<TRIPOS>BOND
     1     1     2 1   
     2     1     6 1   
     3     1    12 1   
     4     1    22 1   
     5     2     3 1   
     6     2    23 1   
     7     2    24 1   
     8     3     4 1   
     9     3    25 1   
    10     3    26 1   
    11     4     5 1   
    12     4    27 1   
    13     4    28 1   
    14     5     6 1   
    15     5    29 1   
    16     5    30 1   
    17     6    31 1   
    18     6    32 1   
    19     7     8 1   
    20     7    13 1   
    21     7    33 1   
    22     8     9 2   
    23     8    10 1   
    24    10    11 2   
    25    10    44 1   
    26    11    12 1   
    27    11    14 1   
    28    13    14 ar  
    29    13    18 ar  
    30    14    15 ar  
    31    15    16 ar  
    32    15    34 1   
    33    16    17 ar  
    34    16    19 1   
    35    17    18 ar  
    36    17    35 1   
    37    18    36 1   
    38    20    21 1   
    39    20    39 1   
    40    20    40 1   
    41    20    44 1   
    42    21    41 1   
    43    21    42 1   
    44    21    43 1   
    45    37    44 1   
    46    38    44 1   
@<TRIPOS>SUBSTRUCTURE
     1 H16         1 TEMP              0 ****  ****    0 ROOT
