@<TRIPOS>MOLECULE
H17
   47    49     1     0     0
SMALL
No Charge or Current Charge


@<TRIPOS>ATOM
      1 N1          -2.4740    -0.7610     0.0220 ns         1 H17      -0.154000
      2 C4           4.1710     2.8860    -0.9440 c5         1 H17      -0.097400
      3 C5           2.9050     2.3010    -0.2750 c5         1 H17      -0.089400
      4 C6           3.0380     0.7890    -0.6240 c5         1 H17       0.159000
      5 C7           2.3810    -0.0030     0.5160 ca         1 H17      -0.075300
      6 C8           2.9350    -0.0410     1.8160 ca         1 H17      -0.085000
      7 C10          1.1200    -1.4720     2.5770 ca         1 H17      -0.086000
      8 C13         -1.9540    -1.2810     1.2020 c          1 H17       0.606100
      9 C15         -4.4180     0.6280     0.7590 ca         1 H17      -0.135000
     10 C17         -5.6830     1.8560    -0.9220 ca         1 H17      -0.133000
     11 C20          1.1890    -0.7120     0.2680 ca         1 H17      -0.075000
     12 O1           4.4380    -1.6720    -1.0170 o          1 H17      -0.600100
     13 C1           6.6010    -0.7750    -0.6530 ce         1 H17      -0.295200
     14 C            7.3360    -1.7870    -1.1770 c2         1 H17      -0.238000
     15 N            4.5050     0.5840    -0.6080 n          1 H17      -0.416800
     16 C3           5.2550     1.8560    -0.5290 c5         1 H17       0.107000
     17 C11          0.5550    -1.4470     1.2890 ca         1 H17      -0.073300
     18 C9           2.3070    -0.7710     2.8380 ca         1 H17      -0.111000
     19 C12         -0.7410    -2.1990     1.0020 c3         1 H17      -0.112100
     20 O           -2.3920    -1.0330     2.3190 o          1 H17      -0.562100
     21 C14         -3.5600     0.1170    -0.2420 ca         1 H17      -0.004000
     22 C19         -3.7840     0.4880    -1.5820 ca         1 H17      -0.170000
     23 C18         -4.8370     1.3520    -1.9200 ca         1 H17       0.151000
     24 Cl          -5.0960     1.8020    -3.6000 cl         1 H17      -0.206000
     25 C16         -5.4740     1.4940     0.4180 ca         1 H17      -0.076000
     26 H1          -1.9830    -1.0610    -0.8100 hn         1 H17       0.150000
     27 H2           4.0610     2.9230    -2.0350 hc         1 H17       0.055200
     28 H3           4.4050     3.9000    -0.6030 hc         1 H17       0.055200
     29 H4           2.9220     2.4890     0.8050 hc         1 H17       0.060200
     30 H5           1.9780     2.7370    -0.6640 hc         1 H17       0.060200
     31 H6           2.6140     0.5480    -1.6090 h1         1 H17       0.062700
     32 H7           3.8540     0.4970     2.0350 ha         1 H17       0.114000
     33 H8           0.6380    -2.0310     3.3760 ha         1 H17       0.110000
     34 H9          -4.2880     0.3680     1.8040 ha         1 H17       0.152000
     35 H10         -6.4980     2.5250    -1.1870 ha         1 H17       0.131000
     36 H11          0.7530    -0.6900    -0.7290 ha         1 H17       0.110000
     37 H12          7.1100     0.0660    -0.1880 ha         1 H17       0.177000
     38 H13          8.4260    -1.7980    -1.1130 ha         1 H17       0.174500
     39 H14          6.8730    -2.6360    -1.6840 ha         1 H17       0.174500
     40 H15          6.1140     1.8840    -1.2130 h1         1 H17       0.046200
     41 H16          5.6110     2.0330     0.4950 h1         1 H17       0.046200
     42 H17          2.7420    -0.7920     3.8350 ha         1 H17       0.112000
     43 H18         -0.8310    -3.0530     1.6830 hc         1 H17       0.067200
     44 H19         -0.7180    -2.5640    -0.0320 hc         1 H17       0.067200
     45 H20         -3.1370     0.1060    -2.3690 ha         1 H17       0.124000
     46 H21         -6.1290     1.8830     1.1950 ha         1 H17       0.119000
     47 C2           5.1070    -0.6830    -0.7500 c          1 H17       0.604300
@<TRIPOS>BOND
     1     1     8 1   
     2     1    21 1   
     3     1    26 1   
     4     2     3 1   
     5     2    16 1   
     6     2    27 1   
     7     2    28 1   
     8     3     4 1   
     9     3    29 1   
    10     3    30 1   
    11     4     5 1   
    12     4    15 1   
    13     4    31 1   
    14     5     6 ar  
    15     5    11 ar  
    16     6    18 ar  
    17     6    32 1   
    18     7    17 ar  
    19     7    18 ar  
    20     7    33 1   
    21     8    19 1   
    22     8    20 2   
    23     9    21 ar  
    24     9    25 ar  
    25     9    34 1   
    26    10    23 ar  
    27    10    25 ar  
    28    10    35 1   
    29    11    17 ar  
    30    11    36 1   
    31    12    47 2   
    32    13    14 2   
    33    13    37 1   
    34    13    47 1   
    35    14    38 1   
    36    14    39 1   
    37    15    16 1   
    38    15    47 1   
    39    16    40 1   
    40    16    41 1   
    41    17    19 1   
    42    18    42 1   
    43    19    43 1   
    44    19    44 1   
    45    21    22 ar  
    46    22    23 ar  
    47    22    45 1   
    48    23    24 1   
    49    25    46 1   
@<TRIPOS>SUBSTRUCTURE
     1 H17         1 TEMP              0 ****  ****    0 ROOT
