@<TRIPOS>MOLECULE
H17
   47    49     1     0     0
SMALL
abcg2


@<TRIPOS>ATOM
      1 N1          -2.9330    -0.6950    -0.3100 ns         1 H17      -0.154000
      2 C4           4.8550     2.9650    -0.3250 c5         1 H17      -0.097400
      3 C5           3.4970     2.4110     0.0800 c5         1 H17      -0.089400
      4 C6           3.5530     0.9470    -0.3760 c5         1 H17       0.159000
      5 C7           2.6860     0.0470     0.4660 ca         1 H17      -0.075300
      6 C8           3.0740    -0.3370     1.7470 ca         1 H17      -0.085000
      7 C10          0.9910    -1.5080     2.0410 ca         1 H17      -0.086000
      8 C13         -1.8050    -0.4610     0.4140 c          1 H17       0.606100
      9 C15         -4.3540     1.2180     0.3370 ca         1 H17      -0.135000
     10 C17         -6.5730     1.3730    -0.6310 ca         1 H17      -0.133000
     11 C20          1.4460    -0.3570    -0.0090 ca         1 H17      -0.075000
     12 O1           4.6750    -1.4350    -1.1260 o          1 H17      -0.600100
     13 C1           6.8840    -0.8290    -0.4970 ce         1 H17      -0.295200
     14 C            7.4700    -1.9010    -1.0200 c2         1 H17      -0.238000
     15 N            4.9770     0.6320    -0.2950 n          1 H17      -0.416800
     16 C3           5.7960     1.8100    -0.0100 c5         1 H17       0.107000
     17 C11          0.5870    -1.1310     0.7670 ca         1 H17      -0.073300
     18 C9           2.2320    -1.1140     2.5260 ca         1 H17      -0.111000
     19 C12         -0.7510    -1.5410     0.2310 c3         1 H17      -0.112100
     20 O           -1.6490     0.4950     1.1460 o          1 H17      -0.562100
     21 C14         -4.1170     0.0380    -0.3710 ca         1 H17      -0.004000
     22 C19         -5.1150    -0.4670    -1.2090 ca         1 H17      -0.170000
     23 C18         -6.3180     0.2020    -1.3260 ca         1 H17       0.151000
     24 CL          -7.5360    -0.4490    -2.3750 cl         1 H17      -0.206000
     25 C16         -5.5740     1.8640     0.1960 ca         1 H17      -0.076000
     26 H1          -2.9200    -1.5260    -0.8830 hn         1 H17       0.150000
     27 H2           4.8770     3.1820    -1.3950 hc         1 H17       0.055200
     28 H3           5.1280     3.8740     0.2080 hc         1 H17       0.055200
     29 H4           3.3810     2.4600     1.1660 hc         1 H17       0.060200
     30 H5           2.6550     2.9370    -0.3670 hc         1 H17       0.060200
     31 H6           3.2220     0.8770    -1.4190 h1         1 H17       0.062700
     32 H7           4.0420    -0.0410     2.1350 ha         1 H17       0.114000
     33 H8           0.3410    -2.1200     2.6550 ha         1 H17       0.110000
     34 H9          -3.6070     1.6350     0.9910 ha         1 H17       0.152000
     35 H10         -7.5180     1.8880    -0.7290 ha         1 H17       0.131000
     36 H11          1.1440    -0.0690    -1.0100 ha         1 H17       0.110000
     37 H12          7.4700    -0.1280     0.0850 ha         1 H17       0.177000
     38 H13          8.5250    -2.0850    -0.8780 ha         1 H17       0.174500
     39 H14          6.9200    -2.6250    -1.6070 ha         1 H17       0.174500
     40 H15          6.6920     1.8310    -0.6290 h1         1 H17       0.046200
     41 H16          6.1060     1.8280     1.0390 h1         1 H17       0.046200
     42 H17          2.5420    -1.4180     3.5180 ha         1 H17       0.112000
     43 H18         -1.1080    -2.4410     0.7410 hc         1 H17       0.067200
     44 H19         -0.6790    -1.8030    -0.8280 hc         1 H17       0.067200
     45 H20         -4.9470    -1.3820    -1.7620 ha         1 H17       0.124000
     46 H21         -5.7480     2.7780     0.7480 ha         1 H17       0.119000
     47 C2           5.4280    -0.5780    -0.6760 c          1 H17       0.604300
@<TRIPOS>BOND
     1     1     8 1   
     2     1    21 1   
     3     1    26 1   
     4     2     3 1   
     5     2    16 1   
     6     2    27 1   
     7     2    28 1   
     8     3     4 1   
     9     3    29 1   
    10     3    30 1   
    11     4     5 1   
    12     4    15 1   
    13     4    31 1   
    14     5     6 ar  
    15     5    11 ar  
    16     6    18 ar  
    17     6    32 1   
    18     7    17 ar  
    19     7    18 ar  
    20     7    33 1   
    21     8    19 1   
    22     8    20 2   
    23     9    21 ar  
    24     9    25 ar  
    25     9    34 1   
    26    10    23 ar  
    27    10    25 ar  
    28    10    35 1   
    29    11    17 ar  
    30    11    36 1   
    31    12    47 2   
    32    13    14 2   
    33    13    37 1   
    34    13    47 1   
    35    14    38 1   
    36    14    39 1   
    37    15    16 1   
    38    15    47 1   
    39    16    40 1   
    40    16    41 1   
    41    17    19 1   
    42    18    42 1   
    43    19    43 1   
    44    19    44 1   
    45    21    22 ar  
    46    22    23 ar  
    47    22    45 1   
    48    23    24 1   
    49    25    46 1   
@<TRIPOS>SUBSTRUCTURE
     1 H17         1 TEMP              0 ****  ****    0 ROOT
