@<TRIPOS>MOLECULE
H18
   45    47     1     0     0
SMALL
bcc


@<TRIPOS>ATOM
      1 CA           0.4190    -2.1200    -0.2320 c6         1 H18       0.009600
      2 CB           0.6580    -3.5300     0.3060 c6         1 H18      -0.061400
      3 CC           1.2650    -4.4160    -0.7800 c6         1 H18      -0.070400
      4 CD           2.5460    -3.8100    -1.3410 c6         1 H18      -0.073400
      5 CE           2.2960    -2.4000    -1.8620 c6         1 H18      -0.070400
      6 CF           1.6930    -1.5000    -0.7830 c6         1 H18      -0.061400
      7 N1          -1.5320     2.6360    -1.0490 ns         1 H18      -0.430100
      8 C6          -2.4090     1.5940    -1.0420 c          1 H18       0.696700
      9 O2          -3.5020     1.6870    -1.5790 o          1 H18      -0.622500
     10 C5          -1.9470     0.3850    -0.3450 cc         1 H18      -0.115400
     11 C4          -0.7240     0.3680     0.2410 cd         1 H18       0.054500
     12 S4          -0.3360    -1.1600     1.1430 sx         1 H18       0.181200
     13 C2          -0.2940     2.6490    -0.4690 ca         1 H18       0.091600
     14 C3           0.1650     1.5080     0.2100 ca         1 H18      -0.090800
     15 C7           1.4460     1.5530     0.7840 ca         1 H18      -0.066000
     16 C8           2.2150     2.6860     0.6690 ca         1 H18      -0.008600
     17 C9           1.7550     3.8160    -0.0050 ca         1 H18      -0.068000
     18 C10          0.5030     3.7920    -0.5710 ca         1 H18      -0.183000
     19 CL           3.7960     2.7140     1.3800 cl         1 H18      -0.100400
     20 C12         -3.8900    -0.5950     0.9110 c3         1 H18      -0.070400
     21 C13         -4.9340    -1.7010     0.9390 c3         1 H18      -0.090100
     22 OS           0.7380    -0.9150     2.1720 o          1 H18      -0.472200
     23 HA          -0.3560    -2.1480    -1.0060 h1         1 H18       0.079700
     24 HB1          1.3410    -3.4810     1.1600 hc         1 H18       0.051450
     25 HB2         -0.2780    -3.9640     0.6650 hc         1 H18       0.051450
     26 HC1          1.4560    -5.4100    -0.3690 hc         1 H18       0.040450
     27 HC2          0.5370    -4.5450    -1.5880 hc         1 H18       0.040450
     28 HD1          3.3070    -3.7770    -0.5550 hc         1 H18       0.042200
     29 HD2          2.9460    -4.4410    -2.1380 hc         1 H18       0.042200
     30 HE1          3.2250    -1.9530    -2.2200 hc         1 H18       0.040450
     31 HE2          1.6170    -2.4420    -2.7200 hc         1 H18       0.040450
     32 HF1          1.4950    -0.5120    -1.2010 hc         1 H18       0.051450
     33 HF2          2.4190    -1.3770     0.0260 hc         1 H18       0.051450
     34 HN1         -1.8380     3.4730    -1.5290 hn         1 H18       0.330500
     35 H7           1.8220     0.6990     1.3250 ha         1 H18       0.189000
     36 H9           2.3720     4.7000    -0.0860 ha         1 H18       0.151000
     37 H10          0.1320     4.6610    -1.1000 ha         1 H18       0.141000
     38 H111        -3.5310    -0.7270    -1.2100 hc         1 H18       0.059700
     39 H112        -2.4680    -1.7120    -0.2560 hc         1 H18       0.059700
     40 H121        -3.3020    -0.6130     1.8330 hc         1 H18       0.045700
     41 H122        -4.3820     0.3790     0.8770 hc         1 H18       0.045700
     42 H131        -5.5880    -1.6030     1.8050 hc         1 H18       0.035700
     43 H132        -5.5580    -1.6760     0.0450 hc         1 H18       0.035700
     44 H133        -4.4650    -2.6860     0.9880 hc         1 H18       0.035700
     45 C11         -2.9480    -0.7340    -0.2880 c3         1 H18      -0.043200
@<TRIPOS>BOND
     1     1     2 1   
     2     1     6 1   
     3     1    12 1   
     4     1    23 1   
     5     2     3 1   
     6     2    24 1   
     7     2    25 1   
     8     3     4 1   
     9     3    26 1   
    10     3    27 1   
    11     4     5 1   
    12     4    28 1   
    13     4    29 1   
    14     5     6 1   
    15     5    30 1   
    16     5    31 1   
    17     6    32 1   
    18     6    33 1   
    19     7     8 1   
    20     7    13 1   
    21     7    34 1   
    22     8     9 2   
    23     8    10 1   
    24    10    11 2   
    25    10    45 1   
    26    11    12 1   
    27    11    14 1   
    28    12    22 2   
    29    13    14 ar  
    30    13    18 ar  
    31    14    15 ar  
    32    15    16 ar  
    33    15    35 1   
    34    16    17 ar  
    35    16    19 1   
    36    17    18 ar  
    37    17    36 1   
    38    18    37 1   
    39    20    21 1   
    40    20    40 1   
    41    20    41 1   
    42    20    45 1   
    43    21    42 1   
    44    21    43 1   
    45    21    44 1   
    46    38    45 1   
    47    39    45 1   
@<TRIPOS>SUBSTRUCTURE
     1 H18         1 TEMP              0 ****  ****    0 ROOT
