@<TRIPOS>MOLECULE
H18
   45    47     1     0     0
SMALL
No Charge or Current Charge


@<TRIPOS>ATOM
      1 CA           0.4600    -2.1510    -0.1450 c6         1 H18       0.009600
      2 CB           0.6940    -3.5980     0.3660 c6         1 H18      -0.061400
      3 CC           1.2750    -4.5130    -0.7410 c6         1 H18      -0.070400
      4 CD           2.5830    -3.9240    -1.3200 c6         1 H18      -0.073400
      5 CE           2.3590    -2.4850    -1.8410 c6         1 H18      -0.070400
      6 CF           1.7760    -1.5690    -0.7360 c6         1 H18      -0.061400
      7 N1          -1.6070     2.7670    -0.9800 ns         1 H18      -0.363100
      8 C6          -2.5000     1.7280    -1.0090 c          1 H18       0.554200
      9 O2          -3.6100     1.8910    -1.4940 o          1 H18      -0.547000
     10 C5          -2.0080     0.4530    -0.3980 cc         1 H18      -0.115400
     11 C4          -0.7020     0.3870     0.0900 cd         1 H18       0.054500
     12 S4          -0.3860    -1.0960     1.1410 sx         1 H18       0.208000
     13 C2          -0.3120     2.7670    -0.4490 ca         1 H18       0.091600
     14 C3           0.1890     1.5760     0.1080 ca         1 H18      -0.090800
     15 C7           1.5130     1.5780     0.6090 ca         1 H18      -0.048000
     16 C8           2.2910     2.7470     0.5710 ca         1 H18       0.083000
     17 C9           1.7690     3.9300     0.0270 ca         1 H18      -0.050000
     18 C10          0.4630     3.9370    -0.4880 ca         1 H18      -0.165000
     19 Cl           3.9340     2.7240     1.1990 cl         1 H18      -0.192000
     20 C12         -3.9430    -0.6310     0.8780 c3         1 H18      -0.070400
     21 C13         -4.9610    -1.7860     0.9250 c3         1 H18      -0.090100
     22 OS           0.5890    -0.8170     2.2720 o          1 H18      -0.499000
     23 HA          -0.2790    -2.2000    -0.9570 h1         1 H18       0.079700
     24 HB1          1.3760    -3.5810     1.2280 hc         1 H18       0.051450
     25 HB2         -0.2530    -4.0210     0.7290 hc         1 H18       0.051450
     26 HC1          1.4650    -5.5150    -0.3340 hc         1 H18       0.040450
     27 HC2          0.5360    -4.6370    -1.5450 hc         1 H18       0.040450
     28 HD1          3.3640    -3.9220    -0.5470 hc         1 H18       0.042200
     29 HD2          2.9520    -4.5630    -2.1350 hc         1 H18       0.042200
     30 HE1          3.3080    -2.0690    -2.2060 hc         1 H18       0.040450
     31 HE2          1.6770    -2.5050    -2.7030 hc         1 H18       0.040450
     32 HF1          1.5930    -0.5770    -1.1660 hc         1 H18       0.051450
     33 HF2          2.5190    -1.4410     0.0630 hc         1 H18       0.051450
     34 HN1         -1.9350     3.6340    -1.3850 hn         1 H18       0.330500
     35 H7           1.9670     0.6860     1.0210 ha         1 H18       0.171000
     36 H9           2.3760     4.8310    -0.0020 ha         1 H18       0.133000
     37 H10          0.0590     4.8500    -0.9200 ha         1 H18       0.123000
     38 H111        -3.6690    -0.6340    -1.2670 hc         1 H18       0.059700
     39 H112        -2.5490    -1.6540    -0.4330 hc         1 H18       0.059700
     40 H121        -3.3240    -0.6660     1.7830 hc         1 H18       0.045700
     41 H122        -4.4840     0.3230     0.9010 hc         1 H18       0.045700
     42 H131        -5.5820    -1.7120     1.8260 hc         1 H18       0.035700
     43 H132        -5.6220    -1.7580     0.0500 hc         1 H18       0.035700
     44 H133        -4.4490    -2.7560     0.9420 hc         1 H18       0.035700
     45 C11         -3.0350    -0.6740    -0.3720 c3         1 H18      -0.043200
@<TRIPOS>BOND
     1     1     2 1   
     2     1     6 1   
     3     1    12 1   
     4     1    23 1   
     5     2     3 1   
     6     2    24 1   
     7     2    25 1   
     8     3     4 1   
     9     3    26 1   
    10     3    27 1   
    11     4     5 1   
    12     4    28 1   
    13     4    29 1   
    14     5     6 1   
    15     5    30 1   
    16     5    31 1   
    17     6    32 1   
    18     6    33 1   
    19     7     8 1   
    20     7    13 1   
    21     7    34 1   
    22     8     9 2   
    23     8    10 1   
    24    10    11 2   
    25    10    45 1   
    26    11    12 1   
    27    11    14 1   
    28    12    22 2   
    29    13    14 ar  
    30    13    18 ar  
    31    14    15 ar  
    32    15    16 ar  
    33    15    35 1   
    34    16    17 ar  
    35    16    19 1   
    36    17    18 ar  
    37    17    36 1   
    38    18    37 1   
    39    20    21 1   
    40    20    40 1   
    41    20    41 1   
    42    20    45 1   
    43    21    42 1   
    44    21    43 1   
    45    21    44 1   
    46    38    45 1   
    47    39    45 1   
@<TRIPOS>SUBSTRUCTURE
     1 H18         1 TEMP              0 ****  ****    0 ROOT
