@<TRIPOS>MOLECULE
H19
   43    46     1     0     0
SMALL
No Charge or Current Charge


@<TRIPOS>ATOM
      1 C02         -0.5300    -0.9380    -1.3610 ca         1 H19       0.386000
      2 C03         -1.7880    -0.5050    -0.8850 ca         1 H19      -0.141000
      3 C04         -2.8810    -0.2560    -1.7540 ca         1 H19      -0.078000
      4 C05         -4.1130     0.1760    -1.2380 ca         1 H19      -0.109000
      5 C06         -4.2660     0.3610     0.1410 ca         1 H19       0.141000
      6 C08         -3.1920     0.1160     1.0050 ca         1 H19      -0.094000
      7 C09         -1.9500    -0.3170     0.5090 ca         1 H19       0.317000
      8 C11          0.2460    -0.9530     0.9190 ca         1 H19       0.418300
      9 C12          0.5060    -1.1810    -0.4440 ca         1 H19      -0.252300
     10 C13          1.9190    -1.6150    -0.8700 c6         1 H19       0.032800
     11 C14          2.6000    -2.4520     0.2370 c6         1 H19      -0.067400
     12 C15          2.7150    -1.5810     1.5060 c6         1 H19      -0.052700
     13 C16          1.2900    -1.2100     2.0140 c6         1 H19      -0.135700
     14 C17          3.6120    -0.3340     1.2260 c6         1 H19      -0.029200
     15 C18          3.4910     0.2330    -0.1940 c2         1 H19      -0.161400
     16 C19          4.3020     1.4890    -0.4610 c3         1 H19      -0.052200
     17 C20          3.6930     2.7290     0.2140 c3         1 H19       0.098600
     18 C22          2.7420    -0.3660    -1.1380 c2         1 H19      -0.146200
     19 N01         -0.3060    -1.1170    -2.7050 nv         1 H19      -1.094000
     20 N10         -0.9480    -0.5400     1.3810 nb         1 H19      -0.708000
     21 N21          4.5020     3.9690    -0.0800 nz         1 H19      -0.975000
     22 Cl          -5.8100     0.9020     0.7890 cl         1 H19      -0.178000
     23 H1          -2.7960    -0.3960    -2.8290 ha         1 H19       0.112000
     24 H2          -4.9500     0.3650    -1.9070 ha         1 H19       0.139000
     25 H3          -3.3200     0.2610     2.0730 ha         1 H19       0.150000
     26 H4           1.8880    -2.2350    -1.7760 hc         1 H19       0.068700
     27 H5           2.0190    -3.3610     0.4420 hc         1 H19       0.062200
     28 H6           3.5960    -2.7800    -0.0930 hc         1 H19       0.062200
     29 H7           3.2060    -2.1680     2.2950 hc         1 H19       0.067700
     30 H8           1.3390    -0.3460     2.6910 hc         1 H19       0.069200
     31 H9           0.9200    -2.0400     2.6300 hc         1 H19       0.069200
     32 H10          3.4080     0.4480     1.9690 hc         1 H19       0.042200
     33 H11          4.6610    -0.6210     1.3850 hc         1 H19       0.042200
     34 H13          5.3350     1.3520    -0.1160 hc         1 H19       0.063200
     35 H14          4.3610     1.6770    -1.5400 hc         1 H19       0.063200
     36 H15          2.6680     2.8680    -0.1480 hx         1 H19       0.110200
     37 H16          3.6540     2.5700     1.2970 hx         1 H19       0.110200
     38 H17          2.6800     0.0450    -2.1470 ha         1 H19       0.165000
     39 H19         -0.9710    -0.7400    -3.3730 hn         1 H19       0.476000
     40 H20          0.6460    -1.2500    -3.0330 hn         1 H19       0.476000
     41 H21          4.1140     4.8180     0.3620 hn         1 H19       0.510667
     42 H22          5.4770     3.9090     0.2520 hn         1 H19       0.510667
     43 H23          4.5620     4.1880    -1.0860 hn         1 H19       0.510667
@<TRIPOS>BOND
     1     1     2 ar  
     2     1     9 ar  
     3     1    19 1   
     4     2     3 ar  
     5     2     7 ar  
     6     3     4 ar  
     7     3    23 1   
     8     4     5 ar  
     9     4    24 1   
    10     5     6 ar  
    11     5    22 1   
    12     6     7 ar  
    13     6    25 1   
    14     7    20 ar  
    15     8     9 ar  
    16     8    13 1   
    17     8    20 ar  
    18     9    10 1   
    19    10    11 1   
    20    10    18 1   
    21    10    26 1   
    22    11    12 1   
    23    11    27 1   
    24    11    28 1   
    25    12    13 1   
    26    12    14 1   
    27    12    29 1   
    28    13    30 1   
    29    13    31 1   
    30    14    15 1   
    31    14    32 1   
    32    14    33 1   
    33    15    16 1   
    34    15    18 2   
    35    16    17 1   
    36    16    34 1   
    37    16    35 1   
    38    17    21 1   
    39    17    36 1   
    40    17    37 1   
    41    18    38 1   
    42    19    39 1   
    43    19    40 1   
    44    21    41 1   
    45    21    42 1   
    46    21    43 1   
@<TRIPOS>SUBSTRUCTURE
     1 H19         1 TEMP              0 ****  ****    0 ROOT
