@<TRIPOS>MOLECULE
H19
   43    46     1     0     0
SMALL
bcc


@<TRIPOS>ATOM
      1 C02         -0.4740    -0.9490    -1.3780 ca         1 H19       0.247600
      2 C03         -1.7430    -0.4950    -0.8980 ca         1 H19      -0.206300
      3 C04         -2.8590    -0.2770    -1.7340 ca         1 H19      -0.096000
      4 C05         -4.0510     0.1710    -1.2330 ca         1 H19      -0.127000
      5 C06         -4.1590     0.4180     0.1470 ca         1 H19       0.049400
      6 C08         -3.1090     0.2120     0.9950 ca         1 H19      -0.177300
      7 C09         -1.8720    -0.2560     0.4900 ca         1 H19       0.447600
      8 C11          0.2780    -0.9000     0.9110 ca         1 H19       0.483600
      9 C12          0.5320    -1.1750    -0.4450 ca         1 H19      -0.317600
     10 C13          1.9230    -1.6080    -0.8550 c6         1 H19       0.032800
     11 C14          2.5790    -2.4370     0.2430 c6         1 H19      -0.067400
     12 C15          2.7210    -1.5630     1.4800 c6         1 H19      -0.052700
     13 C16          1.3280    -1.1530     1.9660 c6         1 H19      -0.135700
     14 C17          3.6540    -0.3870     1.1790 c6         1 H19      -0.029200
     15 C18          3.4900     0.2080    -0.1920 c2         1 H19      -0.161400
     16 C19          4.2470     1.4770    -0.4720 c3         1 H19      -0.052200
     17 C20          3.5840     2.6630     0.2090 c3         1 H19       0.126800
     18 C22          2.7300    -0.3640    -1.1230 c2         1 H19      -0.096200
     19 N01         -0.2880    -1.1820    -2.7010 nv         1 H19      -0.845200
     20 N10         -0.8720    -0.4540     1.3700 nb         1 H19      -0.708000
     21 N21          4.3700     3.9060    -0.0050 nz         1 H19      -0.837600
     22 CL          -5.6700     0.9920     0.7700 cl         1 H19      -0.086400
     23 H1          -2.8030    -0.4690    -2.7970 ha         1 H19       0.130000
     24 H2          -4.8970     0.3310    -1.8870 ha         1 H19       0.157000
     25 H3          -3.1960     0.3940     2.0580 ha         1 H19       0.168000
     26 H4           1.8780    -2.2190    -1.7620 hc         1 H19       0.068700
     27 H5           1.9760    -3.3230     0.4610 hc         1 H19       0.062200
     28 H6           3.5560    -2.7880    -0.0970 hc         1 H19       0.062200
     29 H7           3.1830    -2.1410     2.2840 hc         1 H19       0.067700
     30 H8           1.3850    -0.2750     2.6150 hc         1 H19       0.069200
     31 H9           0.9340    -1.9540     2.6000 hc         1 H19       0.069200
     32 H10          3.5320     0.3840     1.9470 hc         1 H19       0.042200
     33 H11          4.6950    -0.7190     1.2770 hc         1 H19       0.042200
     34 H13          5.2770     1.3800    -0.1120 hc         1 H19       0.063200
     35 H14          4.2950     1.6560    -1.5490 hc         1 H19       0.063200
     36 H15          2.5890     2.8460    -0.1910 hx         1 H19       0.110200
     37 H16          3.5080     2.5280     1.2850 hx         1 H19       0.110200
     38 H17          2.6400     0.0980    -2.1020 ha         1 H19       0.115000
     39 H19         -0.9120    -0.7690    -3.3720 hn         1 H19       0.420800
     40 H20          0.6450    -1.3060    -3.0500 hn         1 H19       0.420800
     41 H21          3.9380     4.7070     0.4540 hn         1 H19       0.455467
     42 H22          5.3160     3.8260     0.3660 hn         1 H19       0.455467
     43 H23          4.4530     4.1400    -0.9940 hn         1 H19       0.455467
@<TRIPOS>BOND
     1     1     2 ar  
     2     1     9 ar  
     3     1    19 1   
     4     2     3 ar  
     5     2     7 ar  
     6     3     4 ar  
     7     3    23 1   
     8     4     5 ar  
     9     4    24 1   
    10     5     6 ar  
    11     5    22 1   
    12     6     7 ar  
    13     6    25 1   
    14     7    20 ar  
    15     8     9 ar  
    16     8    13 1   
    17     8    20 ar  
    18     9    10 1   
    19    10    11 1   
    20    10    18 1   
    21    10    26 1   
    22    11    12 1   
    23    11    27 1   
    24    11    28 1   
    25    12    13 1   
    26    12    14 1   
    27    12    29 1   
    28    13    30 1   
    29    13    31 1   
    30    14    15 1   
    31    14    32 1   
    32    14    33 1   
    33    15    16 1   
    34    15    18 2   
    35    16    17 1   
    36    16    34 1   
    37    16    35 1   
    38    17    21 1   
    39    17    36 1   
    40    17    37 1   
    41    18    38 1   
    42    19    39 1   
    43    19    40 1   
    44    21    41 1   
    45    21    42 1   
    46    21    43 1   
@<TRIPOS>SUBSTRUCTURE
     1 H19         1 TEMP              0 ****  ****    0 ROOT
