@<TRIPOS>MOLECULE
H1A
   32    32     1     0     0
SMALL
abcg2


@<TRIPOS>ATOM
      1 N1          -0.0690    -0.5780     0.0300 ns         1 H1A      -0.187000
      2 C4           3.1330     0.4350     0.9440 c3         1 H1A      -0.067900
      3 C5           2.4360     0.5070     2.2960 c3         1 H1A      -0.094100
      4 C6           0.9590     0.2640    -0.2580 c          1 H1A       0.596100
      5 C7          -1.4220    -0.1870    -0.1210 ca         1 H1A      -0.151000
      6 C8          -2.1140    -0.4150    -1.3020 ca         1 H1A      -0.067000
      7 C10         -4.0630     0.6150    -0.3650 ca         1 H1A      -0.069000
      8 C1           4.3610    -1.0680    -1.5060 c3         1 H1A      -0.094100
      9 C2           3.0290    -0.3320    -1.4910 c3         1 H1A      -0.067900
     10 C3           2.3440    -0.3350    -0.1190 c3         1 H1A      -0.136700
     11 O1           0.7730     1.4220    -0.5860 o          1 H1A      -0.569100
     12 C9          -3.4370    -0.0210    -1.4310 ca         1 H1A      -0.145000
     13 C11         -3.3850     0.8480     0.8200 ca         1 H1A      -0.145000
     14 C12         -2.0590     0.4450     0.9510 ca         1 H1A       0.157100
     15 O2          -1.4260     0.6750     2.1150 oh         1 H1A      -0.528100
     16 H1           0.1360    -1.5510     0.1980 hn         1 H1A       0.153000
     17 H2           3.3420     1.4440     0.5770 hc         1 H1A       0.052450
     18 H3           4.1020    -0.0510     1.0750 hc         1 H1A       0.052450
     19 H4           2.1400    -0.4830     2.6480 hc         1 H1A       0.034867
     20 H5           3.0940     0.9400     3.0490 hc         1 H1A       0.034867
     21 H6           1.5430     1.1360     2.2640 hc         1 H1A       0.034867
     22 H7          -1.6030    -0.9050    -2.1210 ha         1 H1A       0.116000
     23 H8          -5.0940     0.9310    -0.4550 ha         1 H1A       0.115000
     24 H9           5.1060    -0.5920    -0.8690 hc         1 H1A       0.034867
     25 H10          4.2460    -2.0990    -1.1680 hc         1 H1A       0.034867
     26 H11          4.7700    -1.0960    -2.5170 hc         1 H1A       0.034867
     27 H12          3.1700     0.7020    -1.8190 hc         1 H1A       0.052450
     28 H13          2.3620    -0.8000    -2.2210 hc         1 H1A       0.052450
     29 H14          2.2500    -1.3760     0.2130 hc         1 H1A       0.046700
     30 H15         -3.9720    -0.2040    -2.3530 ha         1 H1A       0.118000
     31 H16         -3.8770     1.3390     1.6500 ha         1 H1A       0.130000
     32 H17         -0.5650     0.2350     2.1060 ho         1 H1A       0.471000
@<TRIPOS>BOND
     1     1     4 1   
     2     1     5 1   
     3     1    16 1   
     4     2     3 1   
     5     2    10 1   
     6     2    17 1   
     7     2    18 1   
     8     3    19 1   
     9     3    20 1   
    10     3    21 1   
    11     4    10 1   
    12     4    11 2   
    13     5     6 ar  
    14     5    14 ar  
    15     6    12 ar  
    16     6    22 1   
    17     7    12 ar  
    18     7    13 ar  
    19     7    23 1   
    20     8     9 1   
    21     8    24 1   
    22     8    25 1   
    23     8    26 1   
    24     9    10 1   
    25     9    27 1   
    26     9    28 1   
    27    10    29 1   
    28    12    30 1   
    29    13    14 ar  
    30    13    31 1   
    31    14    15 1   
    32    15    32 1   
@<TRIPOS>SUBSTRUCTURE
     1 H1A         1 TEMP              0 ****  ****    0 ROOT
