@<TRIPOS>MOLECULE
H1A
   32    32     1     0     0
SMALL
No Charge or Current Charge


@<TRIPOS>ATOM
      1 N1          -0.0620    -0.1870     0.1240 ns         1 H1A      -0.187000
      2 C4           3.3340     0.7030     0.6310 c3         1 H1A      -0.067900
      3 C5           2.7220     1.2710     1.9300 c3         1 H1A      -0.094100
      4 C6           1.0450     0.3960    -0.4850 c          1 H1A       0.596100
      5 C7          -1.4590     0.0760    -0.0170 ca         1 H1A      -0.151000
      6 C8          -1.9790     0.6130    -1.2160 ca         1 H1A      -0.067000
      7 C10         -4.2400     0.5080    -0.3150 ca         1 H1A      -0.069000
      8 C1           4.2560    -1.7900    -1.1580 c3         1 H1A      -0.094100
      9 C2           3.0460    -0.8670    -1.4170 c3         1 H1A      -0.067900
     10 C3           2.3960    -0.2730    -0.1350 c3         1 H1A      -0.136700
     11 O1           0.9760     1.3710    -1.2260 o          1 H1A      -0.569100
     12 C9          -3.3600     0.8300    -1.3600 ca         1 H1A      -0.145000
     13 C11         -3.7330    -0.0320     0.8770 ca         1 H1A      -0.145000
     14 C12         -2.3540    -0.2460     1.0300 ca         1 H1A       0.157100
     15 O2          -1.9010    -0.7480     2.2160 oh         1 H1A      -0.528100
     16 H1           0.1610    -0.9770     0.7160 hn         1 H1A       0.153000
     17 H2           3.6130     1.5370    -0.0250 hc         1 H1A       0.052450
     18 H3           4.2650     0.1880     0.8960 hc         1 H1A       0.052450
     19 H4           2.4280     0.4600     2.6080 hc         1 H1A       0.034867
     20 H5           3.4530     1.9010     2.4500 hc         1 H1A       0.034867
     21 H6           1.8380     1.8850     1.7180 hc         1 H1A       0.034867
     22 H7          -1.3270     0.8470    -2.0530 ha         1 H1A       0.116000
     23 H8          -5.3090     0.6750    -0.4290 ha         1 H1A       0.115000
     24 H9           5.1000    -1.2300    -0.7380 hc         1 H1A       0.034867
     25 H10          3.9910    -2.5950    -0.4630 hc         1 H1A       0.034867
     26 H11          4.5910    -2.2470    -2.0960 hc         1 H1A       0.034867
     27 H12          3.3500    -0.0540    -2.0890 hc         1 H1A       0.052450
     28 H13          2.2880    -1.4490    -1.9580 hc         1 H1A       0.052450
     29 H14          2.1840    -1.1140     0.5370 hc         1 H1A       0.046700
     30 H15         -3.7500     1.2420    -2.2890 ha         1 H1A       0.118000
     31 H16         -4.4120    -0.2790     1.6890 ha         1 H1A       0.130000
     32 H17         -0.9410    -0.5680     2.2820 ho         1 H1A       0.471000
@<TRIPOS>BOND
     1     1     4 1   
     2     1     5 1   
     3     1    16 1   
     4     2     3 1   
     5     2    10 1   
     6     2    17 1   
     7     2    18 1   
     8     3    19 1   
     9     3    20 1   
    10     3    21 1   
    11     4    10 1   
    12     4    11 2   
    13     5     6 ar  
    14     5    14 ar  
    15     6    12 ar  
    16     6    22 1   
    17     7    12 ar  
    18     7    13 ar  
    19     7    23 1   
    20     8     9 1   
    21     8    24 1   
    22     8    25 1   
    23     8    26 1   
    24     9    10 1   
    25     9    27 1   
    26     9    28 1   
    27    10    29 1   
    28    12    30 1   
    29    13    14 ar  
    30    13    31 1   
    31    14    15 1   
    32    15    32 1   
@<TRIPOS>SUBSTRUCTURE
     1 H1A         1 TEMP              0 ****  ****    0 ROOT
