@<TRIPOS>MOLECULE
H1B
   55    58     1     0     0
SMALL
abcg2


@<TRIPOS>ATOM
      1 C01          5.0090    -4.2500     1.4360 c3         1 H1B      -0.112100
      2 C05          4.5550    -4.0760    -0.0020 c3         1 H1B       0.090000
      3 N08          3.3880    -3.1970    -0.1140 n          1 H1B      -0.277000
      4 C09          3.5930    -1.8760    -0.3630 cc         1 H1B      -0.006400
      5 C11          2.5960    -0.9550    -0.4590 cd         1 H1B      -0.105400
      6 C12          2.8890     0.4610    -0.7400 ca         1 H1B      -0.033800
      7 C13          2.2000     1.1530    -1.7380 ca         1 H1B      -0.075000
      8 C15          2.4900     2.4810    -2.0030 ca         1 H1B      -0.111000
      9 C17          3.4780     3.1430    -1.2870 ca         1 H1B      -0.057000
     10 C19          4.1710     2.4600    -0.2980 ca         1 H1B      -0.194300
     11 C20          3.8750     1.1300    -0.0210 ca         1 H1B      -0.059000
     12 C22          5.2600     3.1210     0.4870 c3         1 H1B       0.357300
     13 F23          5.3620     4.4280     0.2340 f          1 H1B      -0.113333
     14 F24          5.0700     2.9900     1.8080 f          1 H1B      -0.113333
     15 F25          6.4570     2.5770     0.2210 f          1 H1B      -0.113333
     16 C26          1.2820    -1.4570    -0.2670 cd         1 H1B      -0.109800
     17 S27         -0.1830    -0.5550    -0.2590 ss         1 H1B       0.340000
     18 C28         -1.1080    -1.9860     0.0680 cd         1 H1B      -0.309900
     19 C29         -0.3270    -3.0920     0.1800 cc         1 H1B      -0.037000
     20 C31          1.0500    -2.7970    -0.0090 cc         1 H1B      -0.221600
     21 C32          2.1310    -3.7470     0.0870 c          1 H1B       0.589600
     22 O33          1.9850    -4.9390     0.3260 o          1 H1B      -0.549000
     23 C34         -2.5620    -1.8220     0.1940 cf         1 H1B       0.731800
     24 N35         -3.2820    -2.9690     0.3130 nv         1 H1B      -1.067200
     25 N37         -2.9810    -0.6150     0.2180 n2         1 H1B      -0.707900
     26 C39         -4.3860    -0.3110     0.3090 c6         1 H1B       0.141500
     27 C41         -4.5480     0.8880     1.2460 c6         1 H1B      -0.057900
     28 C44         -6.0000     1.3000     1.4410 c6         1 H1B      -0.297900
     29 S47         -6.7430     1.7690    -0.1150 s6         1 H1B       1.074000
     30 O48         -5.9860     2.8940    -0.6730 o          1 H1B      -0.517000
     31 O49         -8.1880     1.9330     0.0550 o          1 H1B      -0.517000
     32 C50         -6.4120     0.3210    -1.1080 c6         1 H1B      -0.297900
     33 C53         -4.9270    -0.0190    -1.0960 c6         1 H1B      -0.057900
     34 H011         5.3010    -3.2960     1.8770 hc         1 H1B       0.049700
     35 H012         4.2260    -4.6900     2.0530 hc         1 H1B       0.049700
     36 H013         5.8750    -4.9110     1.4680 hc         1 H1B       0.049700
     37 H051         5.3500    -3.6390    -0.6040 h1         1 H1B       0.064200
     38 H052         4.3040    -5.0350    -0.4500 h1         1 H1B       0.064200
     39 H09          4.6250    -1.5910    -0.5110 h4         1 H1B       0.204000
     40 H13          1.4490     0.6470    -2.3310 ha         1 H1B       0.126000
     41 H20          4.3980     0.6030     0.7680 ha         1 H1B       0.128000
     42 H15          1.9510     3.0040    -2.7810 ha         1 H1B       0.126000
     43 H17          3.6930     4.1780    -1.5110 ha         1 H1B       0.134000
     44 H29         -0.6930    -4.0840     0.4040 ha         1 H1B       0.148000
     45 H351        -2.8860    -3.8310    -0.0190 hn         1 H1B       0.473000
     46 H352        -4.2840    -2.9290     0.2290 hn         1 H1B       0.473000
     47 H39         -4.9870    -1.1290     0.7360 h1         1 H1B       0.022700
     48 H411        -4.1430     0.6310     2.2260 hc         1 H1B       0.069950
     49 H412        -3.9620     1.7300     0.8720 hc         1 H1B       0.069950
     50 H531        -4.3500     0.7890    -1.5490 hc         1 H1B       0.069950
     51 H532        -4.7880    -0.8980    -1.7290 hc         1 H1B       0.069950
     52 H441        -6.6060     0.4870     1.8450 h1         1 H1B       0.101450
     53 H442        -6.0990     2.1640     2.1000 h1         1 H1B       0.101450
     54 H501        -7.0210    -0.4890    -0.7010 h1         1 H1B       0.101450
     55 H502        -6.7710     0.5500    -2.1140 h1         1 H1B       0.101450
@<TRIPOS>BOND
     1     1     2 1   
     2     1    34 1   
     3     1    35 1   
     4     1    36 1   
     5     2     3 1   
     6     2    37 1   
     7     2    38 1   
     8     3     4 1   
     9     3    21 1   
    10     4     5 2   
    11     4    39 1   
    12     5     6 1   
    13     5    16 1   
    14     6     7 ar  
    15     6    11 ar  
    16     7     8 ar  
    17     7    40 1   
    18     8     9 ar  
    19     8    42 1   
    20     9    10 ar  
    21     9    43 1   
    22    10    11 ar  
    23    10    12 1   
    24    11    41 1   
    25    12    13 1   
    26    12    14 1   
    27    12    15 1   
    28    16    17 1   
    29    16    20 2   
    30    17    18 1   
    31    18    19 2   
    32    18    23 1   
    33    19    20 1   
    34    19    44 1   
    35    20    21 1   
    36    21    22 2   
    37    23    24 1   
    38    23    25 2   
    39    24    45 1   
    40    24    46 1   
    41    25    26 1   
    42    26    27 1   
    43    26    33 1   
    44    26    47 1   
    45    27    28 1   
    46    27    48 1   
    47    27    49 1   
    48    28    29 1   
    49    28    52 1   
    50    28    53 1   
    51    29    30 2   
    52    29    31 2   
    53    29    32 1   
    54    32    33 1   
    55    32    54 1   
    56    32    55 1   
    57    33    50 1   
    58    33    51 1   
@<TRIPOS>SUBSTRUCTURE
     1 H1B         1 TEMP              0 ****  ****    0 ROOT
