@<TRIPOS>MOLECULE
H1B
   55    58     1     0     0
SMALL
No Charge or Current Charge


@<TRIPOS>ATOM
      1 C01          5.2440    -4.1510     0.9720 c3         1 H1B      -0.112100
      2 C05          4.3540    -4.1700    -0.2840 c3         1 H1B       0.090000
      3 N08          3.1940    -3.2520    -0.1770 n          1 H1B      -0.277000
      4 C09          3.3670    -1.8860    -0.4450 cc         1 H1B      -0.006400
      5 C11          2.3410    -0.9490    -0.4280 cd         1 H1B      -0.105400
      6 C12          2.6350     0.4830    -0.6860 ca         1 H1B      -0.033800
      7 C13          1.6850     1.3320    -1.2910 ca         1 H1B      -0.075000
      8 C15          1.9800     2.6830    -1.5350 ca         1 H1B      -0.111000
      9 C17          3.2330     3.2090    -1.1890 ca         1 H1B      -0.057000
     10 C19          4.2130     2.3770    -0.6080 ca         1 H1B      -0.194300
     11 C20          3.9030     1.0210    -0.3620 ca         1 H1B      -0.059000
     12 C22          5.5880     2.9330    -0.2170 c3         1 H1B       0.357300
     13 F23          5.9100     4.0550    -0.9010 f          1 H1B      -0.113333
     14 F24          5.6350     3.2440     1.0970 f          1 H1B      -0.113333
     15 F25          6.5800     2.0430    -0.4490 f          1 H1B      -0.113333
     16 C26          1.0500    -1.4500     0.0030 cd         1 H1B      -0.109800
     17 S27         -0.4200    -0.5030     0.3280 ss         1 H1B       0.340000
     18 C28         -1.2980    -1.9860     0.7490 cd         1 H1B      -0.309900
     19 C29         -0.4600    -3.0790     0.6990 cc         1 H1B      -0.037000
     20 C31          0.8670    -2.7780     0.2870 cc         1 H1B      -0.221600
     21 C32          1.9390    -3.7850     0.1950 c          1 H1B       0.589600
     22 O33          1.7610    -4.9740     0.4380 o          1 H1B      -0.549000
     23 C34         -2.6980    -1.9320     1.1370 cf         1 H1B       0.731800
     24 N35         -3.3000    -3.1030     1.3230 nv         1 H1B      -1.067200
     25 N37         -3.2690    -0.8220     1.4220 n2         1 H1B      -0.707900
     26 C39         -4.4090    -0.3600     0.6130 c6         1 H1B       0.141500
     27 C41         -5.3960     0.4660     1.4830 c6         1 H1B      -0.057900
     28 C44         -6.6760     0.8890     0.7080 c6         1 H1B      -0.297900
     29 S47         -6.3220     1.9250    -0.7390 s6         1 H1B       1.074000
     30 O48         -5.6580     3.1560    -0.2910 o          1 H1B      -0.517000
     31 O49         -7.5260     2.0030    -1.5750 o          1 H1B      -0.517000
     32 C50         -5.1000     0.8660    -1.5630 c6         1 H1B      -0.297900
     33 C53         -3.9300     0.4430    -0.6310 c6         1 H1B      -0.057900
     34 H011         5.6370    -3.1440     1.1550 hc         1 H1B       0.049700
     35 H012         4.6720    -4.4660     1.8530 hc         1 H1B       0.049700
     36 H013         6.0920    -4.8350     0.8490 hc         1 H1B       0.049700
     37 H051         4.9570    -3.8750    -1.1520 h1         1 H1B       0.064200
     38 H052         4.0140    -5.1960    -0.4730 h1         1 H1B       0.064200
     39 H09          4.3940    -1.6610    -0.7120 h4         1 H1B       0.204000
     40 H13          0.7270     0.9460    -1.6250 ha         1 H1B       0.126000
     41 H20          4.6490     0.3940     0.1200 ha         1 H1B       0.128000
     42 H15          1.2370     3.3240    -2.0040 ha         1 H1B       0.126000
     43 H17          3.4380     4.2600    -1.3810 ha         1 H1B       0.134000
     44 H29         -0.7570    -4.0920     0.9590 ha         1 H1B       0.148000
     45 H351        -2.9200    -3.9200     0.8660 hn         1 H1B       0.473000
     46 H352        -4.2910    -3.0990     1.5160 hn         1 H1B       0.473000
     47 H39         -4.9510    -1.2460     0.2490 h1         1 H1B       0.022700
     48 H411        -5.6900    -0.1300     2.3580 hc         1 H1B       0.069950
     49 H412        -4.8860     1.3550     1.8800 hc         1 H1B       0.069950
     50 H531        -3.3680     1.3300    -0.3070 hc         1 H1B       0.069950
     51 H532        -3.2240    -0.1700    -1.2100 hc         1 H1B       0.069950
     52 H441        -7.2150     0.0130     0.3270 h1         1 H1B       0.101450
     53 H442        -7.3500     1.4780     1.3430 h1         1 H1B       0.101450
     54 H501        -5.6540    -0.0100    -1.9230 h1         1 H1B       0.101450
     55 H502        -4.7360     1.4400    -2.4250 h1         1 H1B       0.101450
@<TRIPOS>BOND
     1     1     2 1   
     2     1    34 1   
     3     1    35 1   
     4     1    36 1   
     5     2     3 1   
     6     2    37 1   
     7     2    38 1   
     8     3     4 1   
     9     3    21 1   
    10     4     5 2   
    11     4    39 1   
    12     5     6 1   
    13     5    16 1   
    14     6     7 ar  
    15     6    11 ar  
    16     7     8 ar  
    17     7    40 1   
    18     8     9 ar  
    19     8    42 1   
    20     9    10 ar  
    21     9    43 1   
    22    10    11 ar  
    23    10    12 1   
    24    11    41 1   
    25    12    13 1   
    26    12    14 1   
    27    12    15 1   
    28    16    17 1   
    29    16    20 2   
    30    17    18 1   
    31    18    19 2   
    32    18    23 1   
    33    19    20 1   
    34    19    44 1   
    35    20    21 1   
    36    21    22 2   
    37    23    24 1   
    38    23    25 2   
    39    24    45 1   
    40    24    46 1   
    41    25    26 1   
    42    26    27 1   
    43    26    33 1   
    44    26    47 1   
    45    27    28 1   
    46    27    48 1   
    47    27    49 1   
    48    28    29 1   
    49    28    52 1   
    50    28    53 1   
    51    29    30 2   
    52    29    31 2   
    53    29    32 1   
    54    32    33 1   
    55    32    54 1   
    56    32    55 1   
    57    33    50 1   
    58    33    51 1   
@<TRIPOS>SUBSTRUCTURE
     1 H1B         1 TEMP              0 ****  ****    0 ROOT
