@<TRIPOS>MOLECULE
H1C
   35    36     1     0     0
SMALL
No Charge or Current Charge


@<TRIPOS>ATOM
      1 C01         16.1490    63.9810    40.0030 ca         1 H1C      -0.095000
      2 C02         17.1330    63.4130    39.1670 ca         1 H1C      -0.112000
      3 C03         17.2020    63.8750    37.8490 ca         1 H1C      -0.080200
      4 C04         16.3710    64.8360    37.3540 ca         1 H1C       0.089400
      5 C05         15.3850    65.4160    38.1650 ca         1 H1C      -0.051000
      6 C06         15.2720    64.9810    39.5080 ca         1 H1C      -0.095300
      7 C08         17.6810    64.2850    35.7310 cc         1 H1C       0.506400
      8 C11         18.0660    64.8780    33.3720 c          1 H1C       0.654100
      9 C14         18.8710    65.0440    31.1150 c3         1 H1C       0.171900
     10 C15         14.2170    65.5920    40.4210 c3         1 H1C      -0.028100
     11 C16         14.7490    66.8300    41.1720 c3         1 H1C      -0.075400
     12 C17         13.7000    67.4710    42.1070 c3         1 H1C      -0.076400
     13 C18         14.2340    68.7070    42.8560 c3         1 H1C      -0.088100
     14 N07         18.0350    63.5190    36.8340 na         1 H1C      -0.351600
     15 N09         16.6570    65.1090    36.0190 nd         1 H1C      -0.573100
     16 N10         18.3150    64.1880    34.5220 ns         1 H1C      -0.417400
     17 O12         18.9480    64.4480    32.4240 os         1 H1C      -0.464100
     18 O13         17.2090    65.7320    33.2020 o          1 H1C      -0.462000
     19 H1          16.0670    63.6480    41.0350 ha         1 H1C       0.112000
     20 H2          17.8110    62.6460    39.5350 ha         1 H1C       0.116000
     21 H3          14.7270    66.1830    37.7660 ha         1 H1C       0.131000
     22 H4          19.6320    64.6120    30.4530 h1         1 H1C       0.052700
     23 H5          17.8870    64.8680    30.6610 h1         1 H1C       0.052700
     24 H6          19.0420    66.1270    31.1660 h1         1 H1C       0.052700
     25 H7          13.3330    65.8760    39.8370 hc         1 H1C       0.045200
     26 H8          13.8750    64.8470    41.1500 hc         1 H1C       0.045200
     27 H9          15.6290    66.5410    41.7610 hc         1 H1C       0.042200
     28 H10         15.0850    67.5760    40.4410 hc         1 H1C       0.042200
     29 H11         12.8200    67.7630    41.5200 hc         1 H1C       0.036200
     30 H12         13.3630    66.7280    42.8400 hc         1 H1C       0.036200
     31 H13         13.4550    69.1270    43.5050 hc         1 H1C       0.032033
     32 H14         15.0950    68.4410    43.4810 hc         1 H1C       0.032033
     33 H15         14.5460    69.4850    42.1480 hc         1 H1C       0.032033
     34 H16         18.7730    62.8290    36.8660 hn         1 H1C       0.354000
     35 H18         19.0710    63.5270    34.4410 hn         1 H1C       0.334500
@<TRIPOS>BOND
     1     1     2 ar  
     2     1     6 ar  
     3     1    19 1   
     4     2     3 ar  
     5     2    20 1   
     6     3     4 ar  
     7     3    14 1   
     8     4     5 ar  
     9     4    15 1   
    10     5     6 ar  
    11     5    21 1   
    12     6    10 1   
    13     7    14 1   
    14     7    15 2   
    15     7    16 1   
    16     8    16 1   
    17     8    17 1   
    18     8    18 2   
    19     9    17 1   
    20     9    22 1   
    21     9    23 1   
    22     9    24 1   
    23    10    11 1   
    24    10    25 1   
    25    10    26 1   
    26    11    12 1   
    27    11    27 1   
    28    11    28 1   
    29    12    13 1   
    30    12    29 1   
    31    12    30 1   
    32    13    31 1   
    33    13    32 1   
    34    13    33 1   
    35    14    34 1   
    36    16    35 1   
@<TRIPOS>SUBSTRUCTURE
     1 H1C         1 TEMP              0 ****  ****    0 ROOT
