@<TRIPOS>MOLECULE
H1C
   35    36     1     0     0
SMALL
abcg2


@<TRIPOS>ATOM
      1 C01         16.1320    64.1390    39.9240 ca         1 H1C      -0.095000
      2 C02         17.1400    63.5640    39.1670 ca         1 H1C      -0.112000
      3 C03         17.2480    63.9840    37.8510 ca         1 H1C      -0.080200
      4 C04         16.3890    64.9440    37.2980 ca         1 H1C       0.089400
      5 C05         15.3870    65.5110    38.0800 ca         1 H1C      -0.051000
      6 C06         15.2550    65.1050    39.4020 ca         1 H1C      -0.095300
      7 C08         17.7130    64.3760    35.7430 cc         1 H1C       0.506400
      8 C11         18.0560    64.7670    33.3520 c          1 H1C       0.654100
      9 C14         18.7900    64.9090    31.1270 c3         1 H1C       0.171900
     10 C15         14.2060    65.7170    40.2900 c3         1 H1C      -0.028100
     11 C16         14.7620    66.8110    41.2020 c3         1 H1C      -0.075400
     12 C17         13.6960    67.4230    42.1010 c3         1 H1C      -0.076400
     13 C18         14.2450    68.5070    43.0180 c3         1 H1C      -0.088100
     14 N07         18.0910    63.6380    36.8210 na         1 H1C      -0.351600
     15 N09         16.7090    65.1700    35.9770 nd         1 H1C      -0.573100
     16 N10         18.4040    64.2280    34.5650 ns         1 H1C      -0.417400
     17 O12         18.9800    64.4320    32.4570 os         1 H1C      -0.464100
     18 O13         17.0790    65.4290    33.1230 o          1 H1C      -0.462000
     19 H1          16.0110    63.8290    40.9560 ha         1 H1C       0.112000
     20 H2          17.8010    62.8170    39.5870 ha         1 H1C       0.116000
     21 H3          14.7180    66.2540    37.6600 ha         1 H1C       0.131000
     22 H4          19.6360    64.5360    30.5570 h1         1 H1C       0.052700
     23 H5          17.8670    64.5270    30.6920 h1         1 H1C       0.052700
     24 H6          18.7830    65.9980    31.0900 h1         1 H1C       0.052700
     25 H7          13.4030    66.1360    39.6770 hc         1 H1C       0.045200
     26 H8          13.7470    64.9400    40.9090 hc         1 H1C       0.045200
     27 H9          15.5660    66.3940    41.8180 hc         1 H1C       0.042200
     28 H10         15.2220    67.5930    40.5900 hc         1 H1C       0.042200
     29 H11         12.8960    67.8380    41.4810 hc         1 H1C       0.036200
     30 H12         13.2340    66.6340    42.7020 hc         1 H1C       0.036200
     31 H13         13.4660    68.9230    43.6570 hc         1 H1C       0.032033
     32 H14         15.0300    68.1130    43.6660 hc         1 H1C       0.032033
     33 H15         14.6750    69.3290    42.4440 hc         1 H1C       0.032033
     34 H16         18.8310    62.9530    36.8530 hn         1 H1C       0.354000
     35 H18         19.2390    63.6600    34.5890 hn         1 H1C       0.334500
@<TRIPOS>BOND
     1     1     2 ar  
     2     1     6 ar  
     3     1    19 1   
     4     2     3 ar  
     5     2    20 1   
     6     3     4 ar  
     7     3    14 1   
     8     4     5 ar  
     9     4    15 1   
    10     5     6 ar  
    11     5    21 1   
    12     6    10 1   
    13     7    14 1   
    14     7    15 2   
    15     7    16 1   
    16     8    16 1   
    17     8    17 1   
    18     8    18 2   
    19     9    17 1   
    20     9    22 1   
    21     9    23 1   
    22     9    24 1   
    23    10    11 1   
    24    10    25 1   
    25    10    26 1   
    26    11    12 1   
    27    11    27 1   
    28    11    28 1   
    29    12    13 1   
    30    12    29 1   
    31    12    30 1   
    32    13    31 1   
    33    13    32 1   
    34    13    33 1   
    35    14    34 1   
    36    16    35 1   
@<TRIPOS>SUBSTRUCTURE
     1 H1C         1 TEMP              0 ****  ****    0 ROOT
