@<TRIPOS>MOLECULE
H1D
   32    31     1     0     0
SMALL
abcg2


@<TRIPOS>ATOM
      1 OXT          5.9620    -1.4180     0.4400 o          1 H1D      -0.726000
      2 C            5.7700    -0.3000    -0.0800 c          1 H1D       0.725000
      3 O            6.4550     0.2320    -0.9740 o          1 H1D      -0.726000
      4 CA           4.5220     0.4690     0.4170 c3         1 H1D       0.021500
      5 N            4.6090     1.8770     0.0720 n8         1 H1D      -0.987200
      6 CB           3.2700    -0.2540    -0.1130 c3         1 H1D      -0.095400
      7 CG           1.9740     0.3060     0.4560 c3         1 H1D       0.073600
      8 SD           0.5680    -0.6320    -0.2080 ss         1 H1D      -0.435000
      9 C5          -0.8060     0.3020     0.5230 c3         1 H1D       0.015600
     10 C4          -2.1030    -0.1000    -0.1630 c3         1 H1D       0.154300
     11 O4          -2.2870    -1.4950    -0.1880 oh         1 H1D      -0.636000
     12 C3          -3.3130     0.5850     0.4930 c3         1 H1D       0.061300
     13 O3          -3.2320     1.9820     0.4430 oh         1 H1D      -0.636000
     14 C2          -4.5820     0.1110    -0.2090 c          1 H1D       0.584100
     15 O2          -4.8360     0.4530    -1.3520 o          1 H1D      -0.578100
     16 N1          -5.3530    -0.6900     0.5330 ns         1 H1D      -0.381400
     17 O1          -6.5480    -1.1370     0.0660 oh         1 H1D      -0.420100
     18 HA           4.5010     0.3900     1.5110 h1         1 H1D       0.042700
     19 HN1A         4.7990     1.9590    -0.9180 hn         1 H1D       0.375500
     20 HN2          3.7280     2.3440     0.2440 hn         1 H1D       0.375500
     21 HB1          3.2490    -0.1830    -1.2060 hc         1 H1D       0.060200
     22 HB2          3.3430    -1.3130     0.1400 hc         1 H1D       0.060200
     23 HG1          1.9760     0.2310     1.5460 h1         1 H1D       0.045700
     24 HG2          1.8410     1.3580     0.1920 h1         1 H1D       0.045700
     25 H51         -0.8600     0.1100     1.5990 h1         1 H1D       0.063200
     26 H52         -0.6270     1.3690     0.3820 h1         1 H1D       0.063200
     27 H4          -2.0560     0.2100    -1.2120 h1         1 H1D       0.102700
     28 HO4         -2.2480    -1.8340     0.7130 ho         1 H1D       0.438000
     29 H3          -3.3350     0.3160     1.5550 h1         1 H1D       0.070700
     30 HO3         -3.2960     2.2590    -0.4790 ho         1 H1D       0.465000
     31 HN1         -5.1570    -0.9050     1.5000 hn         1 H1D       0.337500
     32 HO1         -6.3780    -1.9950    -0.3450 ho         1 H1D       0.442000
@<TRIPOS>BOND
     1     1     2 1   
     2     2     3 1   
     3     2     4 1   
     4     4     5 1   
     5     4     6 1   
     6     4    18 1   
     7     5    19 1   
     8     5    20 1   
     9     6     7 1   
    10     6    21 1   
    11     6    22 1   
    12     7     8 1   
    13     7    23 1   
    14     7    24 1   
    15     8     9 1   
    16     9    10 1   
    17     9    25 1   
    18     9    26 1   
    19    10    11 1   
    20    10    12 1   
    21    10    27 1   
    22    11    28 1   
    23    12    13 1   
    24    12    14 1   
    25    12    29 1   
    26    13    30 1   
    27    14    15 2   
    28    14    16 1   
    29    16    17 1   
    30    16    31 1   
    31    17    32 1   
@<TRIPOS>SUBSTRUCTURE
     1 H1D         1 TEMP              0 ****  ****    0 ROOT
