@<TRIPOS>MOLECULE
H1D
   32    31     1     0     0
SMALL
No Charge or Current Charge


@<TRIPOS>ATOM
      1 OXT          6.3670    -1.1540     1.2070 o          1 H1D      -0.726000
      2 C            5.8560    -0.5610     0.2650 c          1 H1D       0.725000
      3 O            6.3110    -0.5950    -0.8720 o          1 H1D      -0.726000
      4 CA           4.5940     0.3590     0.5510 c3         1 H1D       0.021500
      5 N            4.7620     1.8320     0.2700 n8         1 H1D      -0.987200
      6 CB           3.3400    -0.1920    -0.1790 c3         1 H1D      -0.095400
      7 CG           2.0050     0.4070     0.3130 c3         1 H1D       0.073600
      8 SD           0.5850    -0.3920    -0.5590 ss         1 H1D      -0.435000
      9 C5          -0.8270     0.5030     0.2470 c3         1 H1D       0.015600
     10 C4          -2.1870     0.0200    -0.3140 c3         1 H1D       0.154300
     11 O4          -2.2080    -1.4130    -0.2540 oh         1 H1D      -0.636000
     12 C3          -3.4080     0.6030     0.4520 c3         1 H1D       0.061300
     13 O3          -3.3780     2.0570     0.4250 oh         1 H1D      -0.636000
     14 C2          -4.7430     0.0510    -0.1330 c          1 H1D       0.584100
     15 O2          -5.2060     0.4580    -1.1950 o          1 H1D      -0.578100
     16 N1          -5.4060    -0.8890     0.6540 ns         1 H1D      -0.381400
     17 O1          -6.7770    -1.2630     0.3760 oh         1 H1D      -0.420100
     18 HA           4.3970     0.2680     1.6280 h1         1 H1D       0.042700
     19 HN1A         5.0190     1.9530    -0.7180 hn         1 H1D       0.375500
     20 HN2          3.8550     2.3040     0.3520 hn         1 H1D       0.375500
     21 HB1          3.4380    -0.0310    -1.2590 hc         1 H1D       0.060200
     22 HB2          3.3010    -1.2770    -0.0270 hc         1 H1D       0.060200
     23 HG1          1.8990     0.2420     1.3930 h1         1 H1D       0.045700
     24 HG2          1.9770     1.4870     0.1190 h1         1 H1D       0.045700
     25 H51         -0.7910     0.3280     1.3310 h1         1 H1D       0.063200
     26 H52         -0.7160     1.5810     0.0720 h1         1 H1D       0.063200
     27 H4          -2.2500     0.3470    -1.3630 h1         1 H1D       0.102700
     28 HO4         -1.2830    -1.6920    -0.4450 ho         1 H1D       0.438000
     29 H3          -3.3420     0.2600     1.4930 h1         1 H1D       0.070700
     30 HO3         -3.8200     2.3450    -0.4080 ho         1 H1D       0.465000
     31 HN1         -5.0640    -1.0900     1.5930 hn         1 H1D       0.337500
     32 HO1         -6.7510    -2.2490     0.3630 ho         1 H1D       0.442000
@<TRIPOS>BOND
     1     1     2 1   
     2     2     3 1   
     3     2     4 1   
     4     4     5 1   
     5     4     6 1   
     6     4    18 1   
     7     5    19 1   
     8     5    20 1   
     9     6     7 1   
    10     6    21 1   
    11     6    22 1   
    12     7     8 1   
    13     7    23 1   
    14     7    24 1   
    15     8     9 1   
    16     9    10 1   
    17     9    25 1   
    18     9    26 1   
    19    10    11 1   
    20    10    12 1   
    21    10    27 1   
    22    11    28 1   
    23    12    13 1   
    24    12    14 1   
    25    12    29 1   
    26    13    30 1   
    27    14    15 2   
    28    14    16 1   
    29    16    17 1   
    30    16    31 1   
    31    17    32 1   
@<TRIPOS>SUBSTRUCTURE
     1 H1D         1 TEMP              0 ****  ****    0 ROOT
