@<TRIPOS>MOLECULE
H1F
   47    49     1     0     0
SMALL
No Charge or Current Charge


@<TRIPOS>ATOM
      1 C10         16.8470    65.8450    41.4750 ca         1 H1F      -0.022300
      2 C01         16.7770    63.3840    48.2860 ca         1 H1F      -0.091000
      3 C02         16.9530    62.5820    47.1480 ca         1 H1F      -0.114000
      4 C03         17.3490    63.1610    45.9300 ca         1 H1F      -0.081000
      5 C04         17.5730    64.5530    45.8350 ca         1 H1F      -0.126900
      6 C05         17.3970    65.3490    46.9900 ca         1 H1F      -0.081000
      7 C06         17.0000    64.7670    48.2060 ca         1 H1F      -0.114000
      8 C07         17.9990    65.1660    44.5360 ce         1 H1F       0.406900
      9 C08         18.0550    64.4500    43.1900 c5         1 H1F      -0.164700
     10 C09         18.2020    65.6440    42.1780 c5         1 H1F       0.159000
     11 C11         16.7790    65.7560    40.0740 ca         1 H1F      -0.208000
     12 C12         15.5610    65.9320    39.3760 ca         1 H1F       0.160100
     13 C13         14.3660    66.2020    40.1110 ca         1 H1F       0.032100
     14 C14         14.4350    66.2890    41.5220 ca         1 H1F       0.160100
     15 C15         15.6640    66.1130    42.1900 ca         1 H1F      -0.208000
     16 C16         16.7040    65.5850    37.1960 c3         1 H1F       0.145400
     17 C17         12.8190    66.3440    38.1310 c3         1 H1F       0.148900
     18 C18         13.2250    66.6560    43.6550 c3         1 H1F       0.145400
     19 N01         18.4370    66.7810    43.0870 n          1 H1F      -0.148800
     20 N02         18.2750    66.4170    44.3960 n2         1 H1F      -0.471300
     21 N03         18.9090    68.9520    43.6360 nt         1 H1F      -0.532000
     22 O01         15.5340    65.8400    37.9930 os         1 H1F      -0.323100
     23 O02         13.1050    66.3910    39.5400 os         1 H1F      -0.325100
     24 O03         13.2660    66.5520    42.2210 os         1 H1F      -0.323100
     25 S01         19.0440    68.5360    41.0670 s          1 H1F      -0.659400
     26 H1          16.4690    62.9340    49.2280 ha         1 H1F       0.118000
     27 H2          16.7820    61.5090    47.2080 ha         1 H1F       0.118000
     28 H3          17.4840    62.5190    45.0620 ha         1 H1F       0.119500
     29 H4          17.5650    66.4240    46.9500 ha         1 H1F       0.119500
     30 H5          16.8660    65.3910    49.0880 ha         1 H1F       0.118000
     31 H6          17.1700    63.8300    43.0080 hc         1 H1F       0.081700
     32 H7          17.6990    65.5510    39.5370 ha         1 H1F       0.122500
     33 H8          15.7140    66.1840    43.2710 ha         1 H1F       0.122500
     34 H9          16.4380    65.5610    36.1310 h1         1 H1F       0.041867
     35 H10         17.4540    66.3720    37.3400 h1         1 H1F       0.041867
     36 H11         17.1500    64.6160    37.4550 h1         1 H1F       0.041867
     37 H12         11.7510    66.5270    37.9580 h1         1 H1F       0.032367
     38 H13         13.3820    67.1160    37.5900 h1         1 H1F       0.032367
     39 H14         13.0610    65.3580    37.7140 h1         1 H1F       0.032367
     40 H15         12.2020    66.8650    43.9910 h1         1 H1F       0.041867
     41 H16         13.5510    65.7190    44.1250 h1         1 H1F       0.041867
     42 H17         13.8700    67.4720    44.0060 h1         1 H1F       0.041867
     43 H20         19.1630    69.9060    43.4310 hn         1 H1F       0.337500
     44 H21         18.7580    68.6520    44.5880 hn         1 H1F       0.337500
     45 H18         18.9310    63.7950    43.1500 hc         1 H1F       0.081700
     46 H19         19.0290    65.5000    41.4690 h1         1 H1F       0.103700
     47 C19         18.7710    68.0560    42.6450 cs         1 H1F       0.505400
@<TRIPOS>BOND
     1     1    10 1   
     2     1    11 ar  
     3     1    15 ar  
     4     2     3 ar  
     5     2     7 ar  
     6     2    26 1   
     7     3     4 ar  
     8     3    27 1   
     9     4     5 ar  
    10     4    28 1   
    11     5     6 ar  
    12     5     8 1   
    13     6     7 ar  
    14     6    29 1   
    15     7    30 1   
    16     8     9 1   
    17     8    20 2   
    18     9    10 1   
    19     9    31 1   
    20     9    45 1   
    21    10    19 1   
    22    10    46 1   
    23    11    12 ar  
    24    11    32 1   
    25    12    13 ar  
    26    12    22 1   
    27    13    14 ar  
    28    13    23 1   
    29    14    15 ar  
    30    14    24 1   
    31    15    33 1   
    32    16    22 1   
    33    16    34 1   
    34    16    35 1   
    35    16    36 1   
    36    17    23 1   
    37    17    37 1   
    38    17    38 1   
    39    17    39 1   
    40    18    24 1   
    41    18    40 1   
    42    18    41 1   
    43    18    42 1   
    44    19    20 1   
    45    19    47 1   
    46    21    43 1   
    47    21    44 1   
    48    21    47 1   
    49    25    47 2   
@<TRIPOS>SUBSTRUCTURE
     1 H1F         1 TEMP              0 ****  ****    0 ROOT
