@<TRIPOS>MOLECULE
H1F
   47    49     1     0     0
SMALL
abcg2


@<TRIPOS>ATOM
      1 C10         16.8670    66.1920    41.4060 ca         1 H1F      -0.022300
      2 C01         16.9720    62.7970    47.8710 ca         1 H1F      -0.091000
      3 C02         17.2020    62.2010    46.6390 ca         1 H1F      -0.114000
      4 C03         17.4800    62.9850    45.5280 ca         1 H1F      -0.081000
      5 C04         17.5350    64.3740    45.6370 ca         1 H1F      -0.126900
      6 C05         17.3010    64.9660    46.8830 ca         1 H1F      -0.081000
      7 C06         17.0220    64.1820    47.9880 ca         1 H1F      -0.114000
      8 C07         17.8360    65.1860    44.4630 ce         1 H1F       0.406900
      9 C08         17.9990    64.6520    43.0690 c5         1 H1F      -0.164700
     10 C09         18.1020    65.9440    42.2370 c5         1 H1F       0.159000
     11 C11         16.8920    65.8550    40.0610 ca         1 H1F      -0.208000
     12 C12         15.7400    66.0050    39.2890 ca         1 H1F       0.160100
     13 C13         14.5710    66.5020    39.8700 ca         1 H1F       0.032100
     14 C14         14.5580    66.8340    41.2280 ca         1 H1F       0.160100
     15 C15         15.7090    66.6780    41.9970 ca         1 H1F      -0.208000
     16 C16         16.8140    65.2250    37.3260 c3         1 H1F       0.145400
     17 C17         12.6020    65.5580    39.0400 c3         1 H1F       0.148900
     18 C18         13.3270    67.7190    43.0500 c3         1 H1F       0.145400
     19 N01         18.2730    66.9410    43.2960 n          1 H1F      -0.148800
     20 N02         18.0180    66.4480    44.5410 n2         1 H1F      -0.471300
     21 N03         18.6550    68.9830    44.2280 nt         1 H1F      -0.532000
     22 O01         15.6620    65.7180    37.9790 os         1 H1F      -0.323100
     23 O02         13.4580    66.6900    39.1130 os         1 H1F      -0.325100
     24 O03         13.3910    67.3040    41.7000 os         1 H1F      -0.323100
     25 S01         18.9900    68.8460    41.6090 s          1 H1F      -0.659400
     26 H1          16.7520    62.1860    48.7370 ha         1 H1F       0.118000
     27 H2          17.1650    61.1250    46.5400 ha         1 H1F       0.118000
     28 H3          17.6580    62.5030    44.5740 ha         1 H1F       0.119500
     29 H4          17.3330    66.0430    46.9820 ha         1 H1F       0.119500
     30 H5          16.8390    64.6520    48.9460 ha         1 H1F       0.118000
     31 H6          17.1630    64.0260    42.7580 hc         1 H1F       0.081700
     32 H7          17.8120    65.4860    39.6270 ha         1 H1F       0.122500
     33 H8          15.7060    66.9400    43.0460 ha         1 H1F       0.122500
     34 H9          16.5340    65.0660    36.2870 h1         1 H1F       0.041867
     35 H10         17.6420    65.9380    37.3610 h1         1 H1F       0.041867
     36 H11         17.1500    64.2740    37.7490 h1         1 H1F       0.041867
     37 H12         11.7640    65.8300    38.4010 h1         1 H1F       0.032367
     38 H13         13.1090    64.6940    38.6030 h1         1 H1F       0.032367
     39 H14         12.2170    65.2770    40.0230 h1         1 H1F       0.032367
     40 H15         12.3190    68.0930    43.2090 h1         1 H1F       0.041867
     41 H16         13.5080    66.8930    43.7430 h1         1 H1F       0.041867
     42 H17         14.0380    68.5200    43.2650 h1         1 H1F       0.041867
     43 H20         18.9150    69.9500    44.1500 hn         1 H1F       0.337500
     44 H21         18.4330    68.6100    45.1380 hn         1 H1F       0.337500
     45 H18         18.9050    64.0440    43.0000 hc         1 H1F       0.081700
     46 H19         18.9830    65.9380    41.5960 h1         1 H1F       0.103700
     47 C19         18.6160    68.2330    43.1300 cs         1 H1F       0.505400
@<TRIPOS>BOND
     1     1    10 1   
     2     1    11 ar  
     3     1    15 ar  
     4     2     3 ar  
     5     2     7 ar  
     6     2    26 1   
     7     3     4 ar  
     8     3    27 1   
     9     4     5 ar  
    10     4    28 1   
    11     5     6 ar  
    12     5     8 1   
    13     6     7 ar  
    14     6    29 1   
    15     7    30 1   
    16     8     9 1   
    17     8    20 2   
    18     9    10 1   
    19     9    31 1   
    20     9    45 1   
    21    10    19 1   
    22    10    46 1   
    23    11    12 ar  
    24    11    32 1   
    25    12    13 ar  
    26    12    22 1   
    27    13    14 ar  
    28    13    23 1   
    29    14    15 ar  
    30    14    24 1   
    31    15    33 1   
    32    16    22 1   
    33    16    34 1   
    34    16    35 1   
    35    16    36 1   
    36    17    23 1   
    37    17    37 1   
    38    17    38 1   
    39    17    39 1   
    40    18    24 1   
    41    18    40 1   
    42    18    41 1   
    43    18    42 1   
    44    19    20 1   
    45    19    47 1   
    46    21    43 1   
    47    21    44 1   
    48    21    47 1   
    49    25    47 2   
@<TRIPOS>SUBSTRUCTURE
     1 H1F         1 TEMP              0 ****  ****    0 ROOT
