@<TRIPOS>MOLECULE
H1G
   51    53     1     0     0
SMALL
abcg2


@<TRIPOS>ATOM
      1 N1           1.0500    -3.6860    -0.4720 nb         1 H1G      -0.615000
      2 N3           7.9670     1.1900     0.7120 ns         1 H1G      -0.502900
      3 C4          -5.4260    -0.3550     0.2380 ca         1 H1G      -0.115300
      4 C5          -4.5120    -1.5410     0.2390 c3         1 H1G      -0.104100
      5 C6          -3.0490    -1.1520     0.1010 c          1 H1G       0.602100
      6 C7          -0.8430    -2.2590    -0.1790 ca         1 H1G      -0.031000
      7 C8          -0.0110    -1.1510    -0.1330 ca         1 H1G      -0.139000
      8 C10          1.8590    -2.6320    -0.4280 ca         1 H1G       0.217900
      9 C13          4.1010     1.0340    -0.2140 c          1 H1G       0.612100
     10 C15          7.1310     2.3720     0.8080 c6         1 H1G       0.094000
     11 C17          6.3070    -0.0140    -0.6250 c6         1 H1G       0.012000
     12 O4          -2.6590    -0.0040     0.1460 o          1 H1G      -0.549100
     13 C3          -5.9860     0.1150    -0.9410 ca         1 H1G      -0.053500
     14 C2          -6.8130     1.2330    -0.9630 ca         1 H1G      -0.169500
     15 C18         -5.7200     0.3260     1.4170 ca         1 H1G      -0.053500
     16 C19         -6.5410     1.4390     1.4180 ca         1 H1G      -0.169500
     17 C1          -7.0940     1.9050     0.2240 ca         1 H1G       0.149100
     18 O           -7.8800     2.9960     0.3150 os         1 H1G      -0.341100
     19 C           -8.4470     3.5180    -0.8690 c3         1 H1G       0.147900
     20 N           -2.2280    -2.2260    -0.0610 ns         1 H1G      -0.150000
     21 C11         -0.2480    -3.5170    -0.3530 ca         1 H1G       0.248900
     22 C9           1.3630    -1.3440    -0.2610 ca         1 H1G       0.117100
     23 O1           2.1160    -0.2310    -0.2060 os         1 H1G      -0.302100
     24 C12          3.5080    -0.3650    -0.3100 c3         1 H1G       0.077600
     25 O3           3.3910     2.0040    -0.0250 o          1 H1G      -0.554100
     26 N2           5.4410     1.1120    -0.3540 n          1 H1G      -0.420800
     27 C16          7.6560     0.0590     0.0710 c          1 H1G       0.555000
     28 O2           8.4070    -0.9050     0.0050 o          1 H1G      -0.563000
     29 C14          6.1300     2.3850    -0.3240 c6         1 H1G       0.080000
     30 H1           8.8520     1.2040     1.1970 hn         1 H1G       0.322500
     31 H2          -4.6140    -2.1110     1.1680 hc         1 H1G       0.063700
     32 H3          -4.7720    -2.2340    -0.5650 hc         1 H1G       0.063700
     33 H4          -0.3950    -0.1510    -0.0010 ha         1 H1G       0.173000
     34 H5           2.9180    -2.8350    -0.5310 h4         1 H1G       0.021100
     35 H6           6.6120     2.3980     1.7690 h1         1 H1G       0.054700
     36 H7           7.7670     3.2540     0.7490 h1         1 H1G       0.054700
     37 H8           5.8560    -0.9510    -0.3010 h1         1 H1G       0.074700
     38 H9           6.5000    -0.1100    -1.6990 h1         1 H1G       0.074700
     39 H10         -5.7810    -0.3960    -1.8750 ha         1 H1G       0.111000
     40 H11         -7.2250     1.5580    -1.9080 ha         1 H1G       0.123500
     41 H12         -5.3030    -0.0190     2.3560 ha         1 H1G       0.111000
     42 H13         -6.7580     1.9560     2.3450 ha         1 H1G       0.123500
     43 H14         -9.0210     4.3940    -0.5780 h1         1 H1G       0.040700
     44 H15         -7.6820     3.8210    -1.5890 h1         1 H1G       0.040700
     45 H16         -9.1190     2.8030    -1.3510 h1         1 H1G       0.040700
     46 H17         -2.6790    -3.1300    -0.0910 hn         1 H1G       0.152000
     47 H18         -0.8690    -4.4070    -0.3950 h4         1 H1G       0.016100
     48 H19          3.7930    -0.8290    -1.2630 h1         1 H1G       0.055700
     49 H20          3.9050    -0.9920     0.4970 h1         1 H1G       0.055700
     50 H21          5.4170     3.1920    -0.1860 h1         1 H1G       0.073700
     51 H22          6.6360     2.5430    -1.2810 h1         1 H1G       0.073700
@<TRIPOS>BOND
     1     1     8 ar  
     2     1    21 ar  
     3     2    10 1   
     4     2    27 1   
     5     2    30 1   
     6     3     4 1   
     7     3    13 ar  
     8     3    15 ar  
     9     4     5 1   
    10     4    31 1   
    11     4    32 1   
    12     5    12 2   
    13     5    20 1   
    14     6     7 ar  
    15     6    20 1   
    16     6    21 ar  
    17     7    22 ar  
    18     7    33 1   
    19     8    22 ar  
    20     8    34 1   
    21     9    24 1   
    22     9    25 2   
    23     9    26 1   
    24    10    29 1   
    25    10    35 1   
    26    10    36 1   
    27    11    26 1   
    28    11    27 1   
    29    11    37 1   
    30    11    38 1   
    31    13    14 ar  
    32    13    39 1   
    33    14    17 ar  
    34    14    40 1   
    35    15    16 ar  
    36    15    41 1   
    37    16    17 ar  
    38    16    42 1   
    39    17    18 1   
    40    18    19 1   
    41    19    43 1   
    42    19    44 1   
    43    19    45 1   
    44    20    46 1   
    45    21    47 1   
    46    22    23 1   
    47    23    24 1   
    48    24    48 1   
    49    24    49 1   
    50    26    29 1   
    51    27    28 2   
    52    29    50 1   
    53    29    51 1   
@<TRIPOS>SUBSTRUCTURE
     1 H1G         1 TEMP              0 ****  ****    0 ROOT
