@<TRIPOS>MOLECULE
H1G
   51    53     1     0     0
SMALL
No Charge or Current Charge


@<TRIPOS>ATOM
      1 N1           0.4180    -2.6220    -1.7240 nb         1 H1G      -0.615000
      2 N3           8.5640     1.0330    -0.3240 ns         1 H1G      -0.502900
      3 C4          -5.5520    -0.3620     0.8540 ca         1 H1G      -0.115300
      4 C5          -4.6630    -1.4130     1.5160 c3         1 H1G      -0.104100
      5 C6          -3.1780    -1.0520     1.3600 c          1 H1G       0.602100
      6 C7          -1.1780    -1.7150    -0.1160 ca         1 H1G      -0.031000
      7 C8          -0.1770    -0.8780     0.4270 ca         1 H1G      -0.139000
      8 C10          1.3680    -1.8140    -1.1950 ca         1 H1G       0.217900
      9 C13          4.3470     0.9160     0.6840 c          1 H1G       0.612100
     10 C15          8.1310     1.4550     1.0110 c6         1 H1G       0.094000
     11 C17          6.2310     0.3770    -0.9440 c6         1 H1G       0.012000
     12 O4          -2.6480    -0.2030     2.0680 o          1 H1G      -0.549100
     13 C3          -5.9500    -0.5100    -0.4890 ca         1 H1G      -0.053500
     14 C2          -6.7630     0.4600    -1.1010 ca         1 H1G      -0.169500
     15 C18         -5.9730     0.7690     1.5790 ca         1 H1G      -0.053500
     16 C19         -6.7860     1.7380     0.9680 ca         1 H1G      -0.169500
     17 C1          -7.1850     1.5920    -0.3700 ca         1 H1G       0.149100
     18 O           -7.9830     2.5770    -0.9160 os         1 H1G      -0.341100
     19 C           -8.4450     2.5220    -2.2780 c3         1 H1G       0.147900
     20 N           -2.5220    -1.7520     0.3550 ns         1 H1G      -0.150000
     21 C11         -0.8240    -2.5650    -1.1880 ca         1 H1G       0.248900
     22 C9           1.1170    -0.9250    -0.1190 ca         1 H1G       0.117100
     23 O1           2.0860    -0.1010     0.4210 os         1 H1G      -0.302100
     24 C12          3.4440    -0.0870    -0.0820 c3         1 H1G       0.077600
     25 O3           3.9070     1.6280     1.5820 o          1 H1G      -0.554100
     26 N2           5.7240     0.9510     0.3530 n          1 H1G      -0.420800
     27 C16          7.7300     0.5490    -1.3000 c          1 H1G       0.555000
     28 O2           8.1710     0.2650    -2.4020 o          1 H1G      -0.563000
     29 C14          6.6500     1.8940     1.0450 c6         1 H1G       0.080000
     30 H1           9.5410     1.1300    -0.5770 hn         1 H1G       0.322500
     31 H2          -4.8980    -1.4710     2.5850 hc         1 H1G       0.063700
     32 H3          -4.8570    -2.3880     1.0520 hc         1 H1G       0.063700
     33 H4          -0.3700    -0.1990     1.2500 ha         1 H1G       0.173000
     34 H5           2.3530    -1.8900    -1.6530 h4         1 H1G       0.021100
     35 H6           8.2710     0.6070     1.6970 h1         1 H1G       0.054700
     36 H7           8.7730     2.2770     1.3580 h1         1 H1G       0.054700
     37 H8           6.0510    -0.7070    -0.9490 h1         1 H1G       0.074700
     38 H9           5.6690     0.8190    -1.7780 h1         1 H1G       0.074700
     39 H10         -5.6300    -1.3780    -1.0620 ha         1 H1G       0.111000
     40 H11         -7.0530     0.3170    -2.1370 ha         1 H1G       0.123500
     41 H12         -5.6700     0.8980     2.6160 ha         1 H1G       0.111000
     42 H13         -7.1080     2.6090     1.5330 ha         1 H1G       0.123500
     43 H14         -9.0620     3.4000    -2.5050 h1         1 H1G       0.040700
     44 H15         -7.6000     2.5100    -2.9770 h1         1 H1G       0.040700
     45 H16         -9.0550     1.6250    -2.4460 h1         1 H1G       0.040700
     46 H17         -3.1100    -2.4110    -0.1380 hn         1 H1G       0.152000
     47 H18         -1.5650    -3.2270    -1.6360 h4         1 H1G       0.016100
     48 H19          3.4550     0.1980    -1.1410 h1         1 H1G       0.055700
     49 H20          3.8990    -1.0800     0.0150 h1         1 H1G       0.055700
     50 H21          6.3490     2.0190     2.0950 h1         1 H1G       0.073700
     51 H22          6.5620     2.8800     0.5660 h1         1 H1G       0.073700
@<TRIPOS>BOND
     1     1     8 ar  
     2     1    21 ar  
     3     2    10 1   
     4     2    27 1   
     5     2    30 1   
     6     3     4 1   
     7     3    13 ar  
     8     3    15 ar  
     9     4     5 1   
    10     4    31 1   
    11     4    32 1   
    12     5    12 2   
    13     5    20 1   
    14     6     7 ar  
    15     6    20 1   
    16     6    21 ar  
    17     7    22 ar  
    18     7    33 1   
    19     8    22 ar  
    20     8    34 1   
    21     9    24 1   
    22     9    25 2   
    23     9    26 1   
    24    10    29 1   
    25    10    35 1   
    26    10    36 1   
    27    11    26 1   
    28    11    27 1   
    29    11    37 1   
    30    11    38 1   
    31    13    14 ar  
    32    13    39 1   
    33    14    17 ar  
    34    14    40 1   
    35    15    16 ar  
    36    15    41 1   
    37    16    17 ar  
    38    16    42 1   
    39    17    18 1   
    40    18    19 1   
    41    19    43 1   
    42    19    44 1   
    43    19    45 1   
    44    20    46 1   
    45    21    47 1   
    46    22    23 1   
    47    23    24 1   
    48    24    48 1   
    49    24    49 1   
    50    26    29 1   
    51    27    28 2   
    52    29    50 1   
    53    29    51 1   
@<TRIPOS>SUBSTRUCTURE
     1 H1G         1 TEMP              0 ****  ****    0 ROOT
