@<TRIPOS>MOLECULE
H1H
   63    64     1     0     0
SMALL
No Charge or Current Charge


@<TRIPOS>ATOM
      1 C1          -2.8830    -0.4570     0.0210 ca         1 H1H       0.125100
      2 C2          -3.6550    -1.6380    -0.0290 ca         1 H1H       0.032100
      3 C3          -3.0190    -2.8880     0.1300 ca         1 H1H      -0.106000
      4 C11         -4.2480     5.7190    -0.4150 c3         1 H1H      -0.059700
      5 C12         -3.5440     7.0810    -0.2120 c3         1 H1H      -0.086100
      6 C13         -5.0430     5.7080    -1.7430 c3         1 H1H      -0.086100
      7 C15         -5.8880    -2.6790    -0.3050 c3         1 H1H       0.152900
      8 C17          1.5090    -0.9610     0.9890 c          1 H1H       0.659100
      9 C20          3.9850    -0.7770     1.3810 c3         1 H1H       0.188000
     10 C21          4.6930    -0.2250     0.1400 ca         1 H1H      -0.110300
     11 C22          4.9200    -1.6800     2.2060 c3         1 H1H      -0.099100
     12 C23          5.1670     1.1090     0.1040 ca         1 H1H       0.141100
     13 C24          5.8210     1.5900    -1.0550 ca         1 H1H      -0.205000
     14 C25          6.0060     0.7510    -2.1650 ca         1 H1H      -0.085000
     15 C26          5.5460    -0.5720    -2.1270 ca         1 H1H      -0.145000
     16 C27          4.8960    -1.0590    -0.9820 ca         1 H1H      -0.059000
     17 C29          5.4340     3.2770     1.2670 c3         1 H1H       0.153900
     18 C10         -3.2320     4.5490    -0.3060 c3         1 H1H      -0.073400
     19 C4          -1.6230    -2.9780     0.3400 ca         1 H1H      -0.206600
     20 C5          -0.8540    -1.7870     0.4050 ca         1 H1H       0.032000
     21 C6          -1.4910    -0.5390     0.2350 ca         1 H1H      -0.240000
     22 C8          -2.8270     2.0160    -0.1060 c3         1 H1H       0.163600
     23 C9          -3.8640     3.1360    -0.3250 c3         1 H1H      -0.079400
     24 N16          0.5470    -1.8830     0.6230 ns         1 H1H      -0.186000
     25 N19          2.7680    -1.5090     1.0220 ns         1 H1H      -0.534900
     26 O14         -5.0220    -1.5320    -0.2390 os         1 H1H      -0.341100
     27 O18          1.2960     0.2090     1.2710 o          1 H1H      -0.677100
     28 O28          4.9870     1.9110     1.2170 os         1 H1H      -0.343100
     29 O31          0.1280    -4.5470     0.0710 o          1 H1H      -0.715000
     30 O32         -1.6610    -5.2230     1.0520 o          1 H1H      -0.715000
     31 O7          -3.5250     0.7600    -0.1470 os         1 H1H      -0.345100
     32 H1          -3.5970    -3.8070     0.0860 ha         1 H1H       0.138000
     33 H2          -4.9720     5.6080     0.4020 hc         1 H1H       0.042700
     34 H3          -2.8030     7.2590    -1.0010 hc         1 H1H       0.029200
     35 H4          -4.2720     7.9010    -0.2330 hc         1 H1H       0.029200
     36 H5          -3.0300     7.1120     0.7560 hc         1 H1H       0.029200
     37 H6          -4.3660     5.7430    -2.6040 hc         1 H1H       0.029200
     38 H7          -5.6640     4.8080    -1.8260 hc         1 H1H       0.029200
     39 H8          -5.7130     6.5740    -1.7990 hc         1 H1H       0.029200
     40 H9          -5.8560    -3.2460     0.6350 h1         1 H1H       0.027367
     41 H10         -6.9240    -2.3630    -0.4750 h1         1 H1H       0.027367
     42 H11         -5.5950    -3.3430    -1.1290 h1         1 H1H       0.027367
     43 H12          3.6910     0.0560     2.0330 h1         1 H1H       0.083700
     44 H13          5.8130    -1.1230     2.5120 hc         1 H1H       0.038033
     45 H14          4.4130    -2.0350     3.1110 hc         1 H1H       0.038033
     46 H15          5.2410    -2.5510     1.6230 hc         1 H1H       0.038033
     47 H16          6.1940     2.6080    -1.1120 ha         1 H1H       0.105000
     48 H17          6.5100     1.1260    -3.0530 ha         1 H1H       0.100000
     49 H18          5.6950    -1.2240    -2.9850 ha         1 H1H       0.112000
     50 H19          4.5510    -2.0910    -0.9680 ha         1 H1H       0.129000
     51 H20          5.1870     3.7210     2.2400 h1         1 H1H       0.033700
     52 H21          6.5220     3.3370     1.1340 h1         1 H1H       0.033700
     53 H22          4.9480     3.8760     0.4860 h1         1 H1H       0.033700
     54 H23         -2.5010     4.6270    -1.1210 hc         1 H1H       0.040200
     55 H24         -2.6680     4.6610     0.6290 hc         1 H1H       0.040200
     56 H25         -0.8990     0.3670     0.2570 ha         1 H1H       0.143000
     57 H26         -2.0660     2.0640    -0.8970 h1         1 H1H       0.034700
     58 H27         -2.3360     2.1570     0.8660 h1         1 H1H       0.034700
     59 H28         -4.6300     3.0700     0.4570 hc         1 H1H       0.048700
     60 H29         -4.3610     2.9650    -1.2860 hc         1 H1H       0.048700
     61 H30          0.9040    -2.8180     0.4650 hn         1 H1H       0.228000
     62 H31          2.8530    -2.4890     0.7880 hn         1 H1H       0.320500
     63 C30         -0.9980    -4.3530     0.5060 c          1 H1H       0.726600
@<TRIPOS>BOND
     1     1     2 ar  
     2     1    21 ar  
     3     1    31 1   
     4     2     3 ar  
     5     2    26 1   
     6     3    19 ar  
     7     3    32 1   
     8     4     5 1   
     9     4     6 1   
    10     4    18 1   
    11     4    33 1   
    12     5    34 1   
    13     5    35 1   
    14     5    36 1   
    15     6    37 1   
    16     6    38 1   
    17     6    39 1   
    18     7    26 1   
    19     7    40 1   
    20     7    41 1   
    21     7    42 1   
    22     8    24 1   
    23     8    25 1   
    24     8    27 2   
    25     9    10 1   
    26     9    11 1   
    27     9    25 1   
    28     9    43 1   
    29    10    12 ar  
    30    10    16 ar  
    31    11    44 1   
    32    11    45 1   
    33    11    46 1   
    34    12    13 ar  
    35    12    28 1   
    36    13    14 ar  
    37    13    47 1   
    38    14    15 ar  
    39    14    48 1   
    40    15    16 ar  
    41    15    49 1   
    42    16    50 1   
    43    17    28 1   
    44    17    51 1   
    45    17    52 1   
    46    17    53 1   
    47    18    23 1   
    48    18    54 1   
    49    18    55 1   
    50    19    20 ar  
    51    19    63 1   
    52    20    21 ar  
    53    20    24 1   
    54    21    56 1   
    55    22    23 1   
    56    22    31 1   
    57    22    57 1   
    58    22    58 1   
    59    23    59 1   
    60    23    60 1   
    61    24    61 1   
    62    25    62 1   
    63    29    63 1   
    64    30    63 1   
@<TRIPOS>SUBSTRUCTURE
     1 H1H         1 TEMP              0 ****  ****    0 ROOT
