@<TRIPOS>MOLECULE
H1H
   63    64     1     0     0
SMALL
bcc


@<TRIPOS>ATOM
      1 C1          -2.8370    -0.4970    -0.0160 ca         1 H1H       0.125100
      2 C2          -3.5750    -1.6860    -0.1660 ca         1 H1H       0.032100
      3 C3          -2.9300    -2.8880     0.0240 ca         1 H1H      -0.124000
      4 C11         -4.0590     5.5600    -0.3660 c3         1 H1H      -0.059700
      5 C12         -3.2800     6.8540    -0.1560 c3         1 H1H      -0.086100
      6 C13         -4.8220     5.6010    -1.6860 c3         1 H1H      -0.086100
      7 C15         -5.6520    -2.7080    -0.6510 c3         1 H1H       0.129700
      8 C17          1.4150    -0.8900     1.0360 c          1 H1H       0.793100
      9 C20          3.7880    -0.4910     1.5140 c3         1 H1H       0.188000
     10 C21          4.3170    -0.0170     0.1720 ca         1 H1H      -0.110300
     11 C22          4.8750    -1.2280     2.2920 c3         1 H1H      -0.099100
     12 C23          5.0790     1.1590     0.0910 ca         1 H1H       0.141100
     13 C24          5.5970     1.5810    -1.1310 ca         1 H1H      -0.223000
     14 C25          5.3660     0.8320    -2.2790 ca         1 H1H      -0.103000
     15 C26          4.6210    -0.3320    -2.2150 ca         1 H1H      -0.163000
     16 C27          4.1050    -0.7430    -0.9900 ca         1 H1H      -0.077000
     17 C29          5.9740     3.0470     1.2290 c3         1 H1H       0.130700
     18 C10         -3.1160     4.3590    -0.2810 c3         1 H1H      -0.073400
     19 C4          -1.5740    -2.9720     0.3630 ca         1 H1H      -0.206600
     20 C5          -0.8480    -1.7800     0.5150 ca         1 H1H       0.124600
     21 C6          -1.4970    -0.5510     0.3210 ca         1 H1H      -0.258000
     22 C8          -2.8350     1.8800    -0.0940 c3         1 H1H       0.140400
     23 C9          -3.8120     3.0040    -0.3690 c3         1 H1H      -0.079400
     24 N16          0.4940    -1.8770     0.8590 ns         1 H1H      -0.512100
     25 N19          2.6420    -1.3610     1.3910 ns         1 H1H      -0.601900
     26 O14         -4.8810    -1.5380    -0.4900 os         1 H1H      -0.317900
     27 O18          1.2000     0.3110     0.9100 o          1 H1H      -0.677100
     28 O28          5.2670     1.8250     1.2490 os         1 H1H      -0.319900
     29 O31          0.2430    -4.4310     0.8610 o          1 H1H      -0.820300
     30 O32         -1.7210    -5.3320     0.3650 o          1 H1H      -0.820300
     31 O7          -3.5200     0.6440    -0.2170 os         1 H1H      -0.321900
     32 H1          -3.4670    -3.8200    -0.0860 ha         1 H1H       0.156000
     33 H2          -4.7900     5.4680     0.4470 hc         1 H1H       0.042700
     34 H3          -2.5300     6.9880    -0.9400 hc         1 H1H       0.029200
     35 H4          -3.9380     7.7240    -0.1760 hc         1 H1H       0.029200
     36 H5          -2.7580     6.8550     0.8030 hc         1 H1H       0.029200
     37 H6          -4.1330     5.6440    -2.5340 hc         1 H1H       0.029200
     38 H7          -5.4590     4.7250    -1.8220 hc         1 H1H       0.029200
     39 H8          -5.4650     6.4820    -1.7380 hc         1 H1H       0.029200
     40 H9          -5.6870    -3.3050     0.2650 h1         1 H1H       0.027367
     41 H10         -6.6610    -2.3850    -0.8960 h1         1 H1H       0.027367
     42 H11         -5.2780    -3.3380    -1.4630 h1         1 H1H       0.027367
     43 H12          3.4800     0.3800     2.0960 h1         1 H1H       0.083700
     44 H13          5.7570    -0.6020     2.4090 hc         1 H1H       0.038033
     45 H14          4.5200    -1.5070     3.2850 hc         1 H1H       0.038033
     46 H15          5.1780    -2.1360     1.7660 hc         1 H1H       0.038033
     47 H16          6.1820     2.4890    -1.2060 ha         1 H1H       0.123000
     48 H17          5.7730     1.1710    -3.2230 ha         1 H1H       0.118000
     49 H18          4.4390    -0.9190    -3.1050 ha         1 H1H       0.130000
     50 H19          3.5120    -1.6490    -0.9460 ha         1 H1H       0.147000
     51 H20          5.9870     3.4140     2.2520 h1         1 H1H       0.033700
     52 H21          7.0050     2.9180     0.8890 h1         1 H1H       0.033700
     53 H22          5.4870     3.7920     0.5950 h1         1 H1H       0.033700
     54 H23         -2.3660     4.4390    -1.0760 hc         1 H1H       0.040200
     55 H24         -2.5640     4.4140     0.6630 hc         1 H1H       0.040200
     56 H25         -0.9310     0.3570     0.4420 ha         1 H1H       0.161000
     57 H26         -1.9980     1.9210    -0.8020 h1         1 H1H       0.034700
     58 H27         -2.4170     1.9840     0.9140 h1         1 H1H       0.034700
     59 H28         -4.6310     2.9620     0.3550 hc         1 H1H       0.048700
     60 H29         -4.2520     2.8660    -1.3600 hc         1 H1H       0.048700
     61 H30          0.7510    -2.8770     0.9590 hn         1 H1H       0.394500
     62 H31          2.8040    -2.3550     1.4220 hn         1 H1H       0.320500
     63 C30         -0.9770    -4.3560     0.5420 c          1 H1H       0.937200
@<TRIPOS>BOND
     1     1     2 ar  
     2     1    21 ar  
     3     1    31 1   
     4     2     3 ar  
     5     2    26 1   
     6     3    19 ar  
     7     3    32 1   
     8     4     5 1   
     9     4     6 1   
    10     4    18 1   
    11     4    33 1   
    12     5    34 1   
    13     5    35 1   
    14     5    36 1   
    15     6    37 1   
    16     6    38 1   
    17     6    39 1   
    18     7    26 1   
    19     7    40 1   
    20     7    41 1   
    21     7    42 1   
    22     8    24 1   
    23     8    25 1   
    24     8    27 2   
    25     9    10 1   
    26     9    11 1   
    27     9    25 1   
    28     9    43 1   
    29    10    12 ar  
    30    10    16 ar  
    31    11    44 1   
    32    11    45 1   
    33    11    46 1   
    34    12    13 ar  
    35    12    28 1   
    36    13    14 ar  
    37    13    47 1   
    38    14    15 ar  
    39    14    48 1   
    40    15    16 ar  
    41    15    49 1   
    42    16    50 1   
    43    17    28 1   
    44    17    51 1   
    45    17    52 1   
    46    17    53 1   
    47    18    23 1   
    48    18    54 1   
    49    18    55 1   
    50    19    20 ar  
    51    19    63 1   
    52    20    21 ar  
    53    20    24 1   
    54    21    56 1   
    55    22    23 1   
    56    22    31 1   
    57    22    57 1   
    58    22    58 1   
    59    23    59 1   
    60    23    60 1   
    61    24    61 1   
    62    25    62 1   
    63    29    63 1   
    64    30    63 1   
@<TRIPOS>SUBSTRUCTURE
     1 H1H         1 TEMP              0 ****  ****    0 ROOT
