@<TRIPOS>MOLECULE
H1I
   71    75     1     0     0
SMALL
No Charge or Current Charge


@<TRIPOS>ATOM
      1 C1         -11.4080     0.5420    -2.0410 ca         1 H1I      -0.103000
      2 C2         -11.5520     0.3470    -0.6520 ca         1 H1I      -0.116000
      3 C3         -10.4300     0.4390     0.1920 ca         1 H1I      -0.064000
      4 C4          -9.1820     0.7270    -0.3830 ca         1 H1I      -0.208000
      5 C5          -9.0220     0.9210    -1.7460 ca         1 H1I       0.134400
      6 C6         -10.1420     0.8290    -2.5900 ca         1 H1I      -0.074000
      7 N7          -7.7360     1.2010    -2.2060 nc         1 H1I      -0.620100
      8 C8          -6.9570     1.2050    -1.1220 cd         1 H1I       0.637100
      9 S9          -7.6650     0.8850     0.4850 ss         1 H1I       0.053800
     10 N10         -5.6300     1.4620    -1.3380 nu         1 H1I      -0.569500
     11 N11         -4.6570     1.5130    -0.3610 n2         1 H1I      -0.399400
     12 C12         -3.4050     1.7640    -0.6320 ce         1 H1I       0.307300
     13 C13         -2.8820     1.9930    -2.0500 c3         1 H1I      -0.168400
     14 C14         -2.4420     1.8120     0.4840 cc         1 H1I       0.109700
     15 C15         -2.6400     1.6150     1.8320 cd         1 H1I      -0.136000
     16 C16         -1.3980     1.7700     2.4840 cd         1 H1I      -0.172000
     17 C17         -0.4940     2.0550     1.4990 cc         1 H1I       0.192500
     18 O18         -1.1030     2.0880     0.2690 os         1 H1I      -0.226000
     19 C19          0.9420     2.3010     1.6740 ca         1 H1I      -0.139500
     20 C20          1.5490     2.2710     2.9500 ca         1 H1I      -0.038000
     21 C21          2.9270     2.5040     3.0890 ca         1 H1I      -0.132000
     22 C22          3.7200     2.7710     1.9630 ca         1 H1I      -0.012000
     23 C23          3.1280     2.8090     0.6850 ca         1 H1I      -0.290500
     24 C24          1.7440     2.5720     0.5440 ca         1 H1I       0.030000
     25 S25          4.1400     3.1380    -0.7690 sy         1 H1I       1.182300
     26 O25          3.2690     3.5790    -1.8640 o          1 H1I      -0.528000
     27 O26          5.3170     3.9150    -0.3650 o          1 H1I      -0.528000
     28 N26          4.7420     1.6440    -1.2150 ns         1 H1I      -0.596300
     29 C27          4.0380     0.5500    -1.6050 c          1 H1I       0.634100
     30 O27          2.8250     0.5510    -1.7420 o          1 H1I      -0.550100
     31 C28          4.8880    -0.6910    -1.8890 c3         1 H1I      -0.158400
     32 C29          4.7390    -1.7480    -0.7690 c3         1 H1I      -0.067400
     33 C30          5.5850    -3.0160    -1.0200 c3         1 H1I      -0.078400
     34 C31          5.4360    -4.0710     0.0980 c3         1 H1I      -0.073400
     35 C32          6.2800    -5.3400    -0.1490 c3         1 H1I      -0.030100
     36 C33          6.1160    -6.3630     0.9680 ca         1 H1I      -0.079300
     37 C34          5.1060    -7.3410     0.8920 ca         1 H1I      -0.107000
     38 C35          4.9510    -8.2820     1.9250 ca         1 H1I      -0.108500
     39 C36          5.8050    -8.2500     3.0400 ca         1 H1I      -0.111000
     40 C37          6.8130    -7.2740     3.1220 ca         1 H1I      -0.108500
     41 C38          6.9680    -6.3330     2.0890 ca         1 H1I      -0.107000
     42 H1         -12.2770     0.4700    -2.6920 ha         1 H1I       0.115000
     43 H2         -12.5310     0.1250    -0.2320 ha         1 H1I       0.114000
     44 H6         -10.0300     0.9790    -3.6600 ha         1 H1I       0.129000
     45 H3         -10.5300     0.2910     1.2650 ha         1 H1I       0.121000
     46 H10         -5.4480     1.6150    -2.3330 hn         1 H1I       0.513000
     47 H131        -3.3600     2.8670    -2.5070 hc         1 H1I       0.062033
     48 H132        -1.8020     2.1670    -2.0870 hc         1 H1I       0.062033
     49 H133        -3.0840     1.1240    -2.6870 hc         1 H1I       0.062033
     50 H15         -3.5890     1.3820     2.3040 ha         1 H1I       0.156000
     51 H16         -1.2110     1.6780     3.5470 ha         1 H1I       0.143000
     52 H20          0.9640     2.0660     3.8420 ha         1 H1I       0.121000
     53 H24          1.2910     2.5920    -0.4460 ha         1 H1I       0.159000
     54 H21          3.3830     2.4750     4.0760 ha         1 H1I       0.122000
     55 H22          4.7880     2.9460     2.0890 ha         1 H1I       0.134000
     56 H26          5.7390     1.5890    -1.0960 hn         1 H1I       0.346500
     57 H281         4.5500    -1.1350    -2.8330 hc         1 H1I       0.065200
     58 H282         5.9460    -0.4130    -1.9680 hc         1 H1I       0.065200
     59 H291         5.0330    -1.3020     0.1900 hc         1 H1I       0.057700
     60 H292         3.6820    -2.0320    -0.6770 hc         1 H1I       0.057700
     61 H301         5.2890    -3.4620    -1.9780 hc         1 H1I       0.036700
     62 H302         6.6410    -2.7330    -1.1100 hc         1 H1I       0.036700
     63 H311         5.7310    -3.6270     1.0570 hc         1 H1I       0.046200
     64 H312         4.3810    -4.3560     0.1890 hc         1 H1I       0.046200
     65 H321         5.9920    -5.7830    -1.1100 hc         1 H1I       0.045200
     66 H322         7.3360    -5.0570    -0.2480 hc         1 H1I       0.045200
     67 H34          4.4390    -7.3720     0.0330 ha         1 H1I       0.109500
     68 H38          7.7490    -5.5800     2.1610 ha         1 H1I       0.109500
     69 H35          4.1690    -9.0360     1.8610 ha         1 H1I       0.112000
     70 H36          5.6850    -8.9780     3.8390 ha         1 H1I       0.112000
     71 H37          7.4750    -7.2470     3.9850 ha         1 H1I       0.112000
@<TRIPOS>BOND
     1     1     2 ar  
     2     1     6 ar  
     3     1    42 1   
     4     2     3 ar  
     5     2    43 1   
     6     3     4 ar  
     7     3    45 1   
     8     4     5 ar  
     9     4     9 1   
    10     5     6 ar  
    11     5     7 1   
    12     6    44 1   
    13     7     8 2   
    14     8     9 1   
    15     8    10 1   
    16    10    11 1   
    17    10    46 1   
    18    11    12 2   
    19    12    13 1   
    20    12    14 1   
    21    13    47 1   
    22    13    48 1   
    23    13    49 1   
    24    14    15 2   
    25    14    18 1   
    26    15    16 1   
    27    15    50 1   
    28    16    17 2   
    29    16    51 1   
    30    17    18 1   
    31    17    19 1   
    32    19    20 ar  
    33    19    24 ar  
    34    20    21 ar  
    35    20    52 1   
    36    21    22 ar  
    37    21    54 1   
    38    22    23 ar  
    39    22    55 1   
    40    23    24 ar  
    41    23    25 1   
    42    24    53 1   
    43    25    26 2   
    44    25    27 2   
    45    25    28 1   
    46    28    29 1   
    47    28    56 1   
    48    29    30 2   
    49    29    31 1   
    50    31    32 1   
    51    31    57 1   
    52    31    58 1   
    53    32    33 1   
    54    32    59 1   
    55    32    60 1   
    56    33    34 1   
    57    33    61 1   
    58    33    62 1   
    59    34    35 1   
    60    34    63 1   
    61    34    64 1   
    62    35    36 1   
    63    35    65 1   
    64    35    66 1   
    65    36    37 ar  
    66    36    41 ar  
    67    37    38 ar  
    68    37    67 1   
    69    38    39 ar  
    70    38    69 1   
    71    39    40 ar  
    72    39    70 1   
    73    40    41 ar  
    74    40    71 1   
    75    41    68 1   
@<TRIPOS>SUBSTRUCTURE
     1 H1I         1 TEMP              0 ****  ****    0 ROOT
