@<TRIPOS>MOLECULE
H1I
   71    75     1     0     0
SMALL
bcc


@<TRIPOS>ATOM
      1 C1         -10.5690    -0.8380    -0.8780 ca         1 H1I      -0.121000
      2 C2         -10.6790    -0.0840     0.2920 ca         1 H1I      -0.134000
      3 C3          -9.5780     0.5820     0.8110 ca         1 H1I      -0.082000
      4 C4          -8.3740     0.4760     0.1330 ca         1 H1I      -0.081100
      5 C5          -8.2470    -0.2760    -1.0480 ca         1 H1I       0.134400
      6 C6          -9.3640    -0.9390    -1.5520 ca         1 H1I      -0.092000
      7 N7          -6.9900    -0.2870    -1.6060 nc         1 H1I      -0.620100
      8 C8          -6.1820     0.4200    -0.8930 cd         1 H1I       0.637100
      9 S9          -6.8350     1.1870     0.5400 ss         1 H1I      -0.073100
     10 N10         -4.8750     0.5990    -1.1840 nu         1 H1I      -0.514300
     11 N11         -4.1410     1.3470    -0.3570 n2         1 H1I      -0.399400
     12 C12         -2.8920     1.5070    -0.5930 ce         1 H1I       0.307300
     13 C13         -2.1690     0.9010    -1.7560 c3         1 H1I      -0.168400
     14 C14         -2.1950     2.3370     0.3720 cc         1 H1I       0.219400
     15 C15         -2.6140     2.9990     1.4900 cd         1 H1I      -0.219300
     16 C16         -1.4690     3.6290     2.0310 cd         1 H1I      -0.255300
     17 C17         -0.4260     3.3120     1.2090 cc         1 H1I       0.302200
     18 O18         -0.8710     2.5310     0.2050 os         1 H1I      -0.314800
     19 C19          0.9850     3.6480     1.2300 ca         1 H1I      -0.139500
     20 C20          1.5330     4.2890     2.3440 ca         1 H1I      -0.056000
     21 C21          2.8770     4.6200     2.3850 ca         1 H1I      -0.150000
     22 C22          3.7090     4.3180     1.3180 ca         1 H1I      -0.030000
     23 C23          3.1570     3.6790     0.2160 ca         1 H1I      -0.290500
     24 C24          1.8160     3.3420     0.1510 ca         1 H1I       0.012000
     25 S25          4.2090     3.3220    -1.1590 sy         1 H1I       1.323900
     26 O25          3.3930     3.0870    -2.3310 o          1 H1I      -0.598800
     27 O26          5.2730     4.3070    -1.2030 o          1 H1I      -0.598800
     28 N26          4.9870     1.9040    -0.7330 ns         1 H1I      -0.663300
     29 C27          4.3500     0.6890    -0.5960 c          1 H1I       0.701100
     30 O27          3.1480     0.5970    -0.6880 o          1 H1I      -0.550100
     31 C28          5.2870    -0.4620    -0.3400 c3         1 H1I      -0.158400
     32 C29          4.5790    -1.7920    -0.1390 c3         1 H1I      -0.067400
     33 C30          5.5700    -2.9450    -0.0390 c3         1 H1I      -0.078400
     34 C31          4.8880    -4.2920     0.1600 c3         1 H1I      -0.073400
     35 C32          5.8870    -5.4480     0.2160 c3         1 H1I      -0.030100
     36 C33          5.2150    -6.7770     0.4180 ca         1 H1I      -0.079300
     37 C34          4.7480    -7.5110    -0.6710 ca         1 H1I      -0.125000
     38 C35          4.0950    -8.7230    -0.4890 ca         1 H1I      -0.126500
     39 C36          3.8960    -9.2230     0.7910 ca         1 H1I      -0.129000
     40 C37          4.3550    -8.5000     1.8850 ca         1 H1I      -0.126500
     41 C38          5.0070    -7.2880     1.6970 ca         1 H1I      -0.125000
     42 H1         -11.4390    -1.3530    -1.2630 ha         1 H1I       0.133000
     43 H2         -11.6310    -0.0170     0.8020 ha         1 H1I       0.132000
     44 H6          -9.2800    -1.5240    -2.4590 ha         1 H1I       0.147000
     45 H3          -9.6610     1.1650     1.7180 ha         1 H1I       0.139000
     46 H10         -4.4980     0.1460    -2.0090 hn         1 H1I       0.457800
     47 H131        -2.5950     1.2480    -2.7000 hc         1 H1I       0.062033
     48 H132        -1.1110     1.1440    -1.7660 hc         1 H1I       0.062033
     49 H133        -2.2540    -0.1880    -1.7380 hc         1 H1I       0.062033
     50 H15         -3.6200     3.0310     1.8740 ha         1 H1I       0.174000
     51 H16         -1.4310     4.2470     2.9140 ha         1 H1I       0.161000
     52 H20          0.9070     4.5300     3.1930 ha         1 H1I       0.139000
     53 H24          1.4210     2.8590    -0.7310 ha         1 H1I       0.177000
     54 H21          3.2800     5.1160     3.2570 ha         1 H1I       0.140000
     55 H22          4.7570     4.5810     1.3530 ha         1 H1I       0.152000
     56 H26          5.9900     1.9790    -0.6060 hn         1 H1I       0.346500
     57 H281         5.9780    -0.5210    -1.1880 hc         1 H1I       0.065200
     58 H282         5.9100    -0.2220     0.5280 hc         1 H1I       0.065200
     59 H291         3.9650    -1.7550     0.7640 hc         1 H1I       0.057700
     60 H292         3.8960    -1.9760    -0.9720 hc         1 H1I       0.057700
     61 H301         6.1800    -2.9770    -0.9480 hc         1 H1I       0.036700
     62 H302         6.2660    -2.7660     0.7880 hc         1 H1I       0.036700
     63 H311         4.2990    -4.2760     1.0830 hc         1 H1I       0.046200
     64 H312         4.1780    -4.4660    -0.6550 hc         1 H1I       0.046200
     65 H321         6.4670    -5.4650    -0.7110 hc         1 H1I       0.045200
     66 H322         6.5990    -5.2690     1.0260 hc         1 H1I       0.045200
     67 H34          4.9030    -7.1310    -1.6750 ha         1 H1I       0.127500
     68 H38          5.3670    -6.7350     2.5580 ha         1 H1I       0.127500
     69 H35          3.7460    -9.2800    -1.3500 ha         1 H1I       0.130000
     70 H36          3.3900   -10.1680     0.9370 ha         1 H1I       0.130000
     71 H37          4.2090    -8.8830     2.8870 ha         1 H1I       0.130000
@<TRIPOS>BOND
     1     1     2 ar  
     2     1     6 ar  
     3     1    42 1   
     4     2     3 ar  
     5     2    43 1   
     6     3     4 ar  
     7     3    45 1   
     8     4     5 ar  
     9     4     9 1   
    10     5     6 ar  
    11     5     7 1   
    12     6    44 1   
    13     7     8 2   
    14     8     9 1   
    15     8    10 1   
    16    10    11 1   
    17    10    46 1   
    18    11    12 2   
    19    12    13 1   
    20    12    14 1   
    21    13    47 1   
    22    13    48 1   
    23    13    49 1   
    24    14    15 2   
    25    14    18 1   
    26    15    16 1   
    27    15    50 1   
    28    16    17 2   
    29    16    51 1   
    30    17    18 1   
    31    17    19 1   
    32    19    20 ar  
    33    19    24 ar  
    34    20    21 ar  
    35    20    52 1   
    36    21    22 ar  
    37    21    54 1   
    38    22    23 ar  
    39    22    55 1   
    40    23    24 ar  
    41    23    25 1   
    42    24    53 1   
    43    25    26 2   
    44    25    27 2   
    45    25    28 1   
    46    28    29 1   
    47    28    56 1   
    48    29    30 2   
    49    29    31 1   
    50    31    32 1   
    51    31    57 1   
    52    31    58 1   
    53    32    33 1   
    54    32    59 1   
    55    32    60 1   
    56    33    34 1   
    57    33    61 1   
    58    33    62 1   
    59    34    35 1   
    60    34    63 1   
    61    34    64 1   
    62    35    36 1   
    63    35    65 1   
    64    35    66 1   
    65    36    37 ar  
    66    36    41 ar  
    67    37    38 ar  
    68    37    67 1   
    69    38    39 ar  
    70    38    69 1   
    71    39    40 ar  
    72    39    70 1   
    73    40    41 ar  
    74    40    71 1   
    75    41    68 1   
@<TRIPOS>SUBSTRUCTURE
     1 H1I         1 TEMP              0 ****  ****    0 ROOT
