@<TRIPOS>MOLECULE
H1J
   29    30     1     0     0
SMALL
bcc


@<TRIPOS>ATOM
      1 N1          -0.8210    -0.5790     0.4490 ns         1 H1J      -0.477100
      2 C4          -2.1170     1.5160     0.2550 ca         1 H1J      -0.151000
      3 C5          -3.3620     2.1050     0.0860 ca         1 H1J      -0.094000
      4 C6          -4.5160     1.3510    -0.0540 ca         1 H1J      -0.149000
      5 C7          -4.3960    -0.0290    -0.0200 ca         1 H1J       0.057400
      6 C8          -3.1720    -0.6480     0.1490 ca         1 H1J      -0.187000
      7 C10          3.6780    -0.0730     1.2800 ca         1 H1J      -0.083500
      8 C13          4.5500    -0.6600    -1.2910 ca         1 H1J      -0.168500
      9 C2           0.4390    -0.1060     0.6380 c          1 H1J       0.674100
     10 C3          -2.0160     0.1240     0.2880 ca         1 H1J       0.085600
     11 O1           0.7300     1.0730     0.6640 o          1 H1J      -0.563100
     12 C9           2.8410    -0.7790     0.4210 ca         1 H1J      -0.094300
     13 C11          4.9380     0.3420     0.8730 ca         1 H1J      -0.168500
     14 C12          5.3500     0.0400    -0.4100 ca         1 H1J       0.142900
     15 C14          3.2930    -1.0660    -0.8630 ca         1 H1J      -0.083500
     16 F1           6.5700     0.4360    -0.8120 f          1 H1J      -0.142900
     17 H1          -0.9160    -1.5830     0.4350 hn         1 H1J       0.316500
     18 H2          -1.2460     2.1400     0.3580 ha         1 H1J       0.170000
     19 H3          -3.4300     3.1840     0.0640 ha         1 H1J       0.139000
     20 H4          -5.4790     1.8240    -0.1870 ha         1 H1J       0.150000
     21 H5          -3.1100    -1.7290     0.1710 ha         1 H1J       0.141000
     22 H7           4.8970    -0.8890    -2.2900 ha         1 H1J       0.151500
     23 H10          5.5870     0.8890     1.5450 ha         1 H1J       0.151500
     24 H11          2.6590    -1.6190    -1.5460 ha         1 H1J       0.135000
     25 CL1         -5.8130    -1.0120    -0.1930 cl         1 H1J      -0.112400
     26 C1           1.4690    -1.2030     0.8540 c3         1 H1J      -0.110100
     27 H6           3.3510     0.1540     2.2870 ha         1 H1J       0.135000
     28 H8           1.4600    -1.4400     1.9220 hc         1 H1J       0.066700
     29 H9           1.1700    -2.1160     0.3360 hc         1 H1J       0.066700
@<TRIPOS>BOND
     1     1     9 1   
     2     1    10 1   
     3     1    17 1   
     4     2     3 ar  
     5     2    10 ar  
     6     2    18 1   
     7     3     4 ar  
     8     3    19 1   
     9     4     5 ar  
    10     4    20 1   
    11     5     6 ar  
    12     5    25 1   
    13     6    10 ar  
    14     6    21 1   
    15     7    12 ar  
    16     7    13 ar  
    17     7    27 1   
    18     8    14 ar  
    19     8    15 ar  
    20     8    22 1   
    21     9    11 2   
    22     9    26 1   
    23    12    15 ar  
    24    12    26 1   
    25    13    14 ar  
    26    13    23 1   
    27    14    16 1   
    28    15    24 1   
    29    26    28 1   
    30    26    29 1   
@<TRIPOS>SUBSTRUCTURE
     1 H1J         1 TEMP              0 ****  ****    0 ROOT
