@<TRIPOS>MOLECULE
H1J
   29    30     1     0     0
SMALL
No Charge or Current Charge


@<TRIPOS>ATOM
      1 N1          -0.6060    -0.4490     0.7490 ns         1 H1J      -0.151000
      2 C4          -2.1920     1.4850     0.7690 ca         1 H1J      -0.133000
      3 C5          -3.4110     2.0430     0.3440 ca         1 H1J      -0.076000
      4 C6          -4.2690     1.3090    -0.4900 ca         1 H1J      -0.131000
      5 C7          -3.9070     0.0160    -0.8970 ca         1 H1J       0.149000
      6 C8          -2.6910    -0.5420    -0.4730 ca         1 H1J      -0.169000
      7 C10          3.7900     0.1040     1.1550 ca         1 H1J      -0.065500
      8 C13          3.8490    -0.9920    -1.4330 ca         1 H1J      -0.150500
      9 C2           0.4670    -0.0250     1.5240 c          1 H1J       0.607100
     10 C3          -1.8200     0.1830     0.3620 ca         1 H1J      -0.007000
     11 O1           0.5480     1.0810     2.0470 o          1 H1J      -0.563100
     12 C9           2.7480    -0.7450     0.7310 ca         1 H1J      -0.094300
     13 C11          4.8560     0.4020     0.2880 ca         1 H1J      -0.150500
     14 C12          4.8820    -0.1470    -1.0030 ca         1 H1J       0.178000
     15 C14          2.7820    -1.2920    -0.5680 ca         1 H1J      -0.065500
     16 F1           5.9070     0.1400    -1.8350 f          1 H1J      -0.178000
     17 H1          -0.5040    -1.3880     0.3870 hn         1 H1J       0.150000
     18 H2          -1.5540     2.0810     1.4140 ha         1 H1J       0.152000
     19 H3          -3.6900     3.0460     0.6620 ha         1 H1J       0.121000
     20 H4          -5.2120     1.7380    -0.8190 ha         1 H1J       0.132000
     21 H5          -2.4260    -1.5450    -0.7990 ha         1 H1J       0.123000
     22 H7           3.8760    -1.4140    -2.4350 ha         1 H1J       0.133500
     23 H10          5.6600     1.0580     0.6140 ha         1 H1J       0.133500
     24 H11          1.9830    -1.9480    -0.9090 ha         1 H1J       0.117000
     25 Cl1         -4.9790    -0.9070    -1.9400 cl         1 H1J      -0.204000
     26 C1           1.5870    -1.0640     1.6700 c3         1 H1J      -0.110100
     27 H6           3.7730     0.5360     2.1540 ha         1 H1J       0.117000
     28 H8           1.9410    -1.0530     2.7070 hc         1 H1J       0.066700
     29 H9           1.2000    -2.0620     1.4330 hc         1 H1J       0.066700
@<TRIPOS>BOND
     1     1     9 1   
     2     1    10 1   
     3     1    17 1   
     4     2     3 ar  
     5     2    10 ar  
     6     2    18 1   
     7     3     4 ar  
     8     3    19 1   
     9     4     5 ar  
    10     4    20 1   
    11     5     6 ar  
    12     5    25 1   
    13     6    10 ar  
    14     6    21 1   
    15     7    12 ar  
    16     7    13 ar  
    17     7    27 1   
    18     8    14 ar  
    19     8    15 ar  
    20     8    22 1   
    21     9    11 2   
    22     9    26 1   
    23    12    15 ar  
    24    12    26 1   
    25    13    14 ar  
    26    13    23 1   
    27    14    16 1   
    28    15    24 1   
    29    26    28 1   
    30    26    29 1   
@<TRIPOS>SUBSTRUCTURE
     1 H1J         1 TEMP              0 ****  ****    0 ROOT
