@<TRIPOS>MOLECULE
H1K
   34    35     1     0     0
SMALL
No Charge or Current Charge


@<TRIPOS>ATOM
      1 O1           1.5430    -1.3740     0.1760 o          1 H1K      -0.556100
      2 C4           1.4820    -0.1570     0.0610 c          1 H1K       0.663100
      3 N2           2.5850     0.6660     0.0220 ns         1 H1K      -0.338900
      4 C5           3.9530     0.3430     0.0250 ca         1 H1K       0.454900
      5 C8           4.9220     1.1770     0.6570 ca         1 H1K       0.236900
      6 N4           6.2580     0.9110     0.6110 nb         1 H1K      -0.608000
      7 C7           6.6010    -0.2020    -0.0980 ca         1 H1K       0.239900
      8 C6           5.6350    -1.0180    -0.7500 ca         1 H1K       0.328900
      9 N3           4.3000    -0.7490    -0.7050 nb         1 H1K      -0.648000
     10 N1           0.3030     0.5690    -0.0200 ns         1 H1K      -0.165000
     11 C3          -1.0730     0.1860    -0.0150 ca         1 H1K      -0.103000
     12 C2          -1.4970    -1.1610     0.0440 ca         1 H1K      -0.018000
     13 C9          -2.0420     1.2110    -0.0760 ca         1 H1K       0.166100
     14 O2          -1.5960     2.5190    -0.1350 os         1 H1K      -0.343100
     15 C10         -2.4930     3.6430    -0.2000 c3         1 H1K       0.149900
     16 C11         -3.4170     0.8930    -0.0760 ca         1 H1K      -0.278000
     17 C12         -3.8330    -0.4540    -0.0150 ca         1 H1K       0.188100
     18 C1          -2.8650    -1.4760     0.0440 ca         1 H1K       0.049000
     19 Cl          -3.3490    -3.1720     0.1190 cl         1 H1K      -0.177000
     20 O3          -5.1710    -0.8100    -0.0130 os         1 H1K      -0.320100
     21 C13         -6.2310     0.1610    -0.0700 c3         1 H1K       0.147900
     22 H3           2.3900     1.6570    -0.0040 hn         1 H1K       0.152000
     23 H6           4.6200     2.0670     1.2060 h4         1 H1K       0.024100
     24 H5           7.6610    -0.4430    -0.1540 h4         1 H1K       0.033100
     25 H4           5.9400    -1.8950    -1.3180 h4         1 H1K       0.033100
     26 H2           0.4390     1.5690    -0.0990 hn         1 H1K       0.153000
     27 H1          -0.7880    -1.9790     0.0870 ha         1 H1K       0.146000
     28 H9          -3.1210     3.5900    -1.0980 h1         1 H1K       0.044367
     29 H7          -3.1410     3.6770     0.6840 h1         1 H1K       0.044367
     30 H8          -1.9240     4.5800    -0.2400 h1         1 H1K       0.044367
     31 H10         -4.1560     1.6840    -0.1220 ha         1 H1K       0.125000
     32 H12         -6.1860     0.8390     0.7910 h1         1 H1K       0.044367
     33 H11         -6.1680     0.7540    -0.9920 h1         1 H1K       0.044367
     34 H13         -7.2060    -0.3420    -0.0570 h1         1 H1K       0.044367
@<TRIPOS>BOND
     1     1     2 2   
     2     2     3 1   
     3     2    10 1   
     4     3     4 1   
     5     3    22 1   
     6     4     5 ar  
     7     4     9 ar  
     8     5     6 ar  
     9     5    23 1   
    10     6     7 ar  
    11     7     8 ar  
    12     7    24 1   
    13     8     9 ar  
    14     8    25 1   
    15    10    11 1   
    16    10    26 1   
    17    11    12 ar  
    18    11    13 ar  
    19    12    18 ar  
    20    12    27 1   
    21    13    14 1   
    22    13    16 ar  
    23    14    15 1   
    24    15    28 1   
    25    15    29 1   
    26    15    30 1   
    27    16    17 ar  
    28    16    31 1   
    29    17    18 ar  
    30    17    20 1   
    31    18    19 1   
    32    20    21 1   
    33    21    32 1   
    34    21    33 1   
    35    21    34 1   
@<TRIPOS>SUBSTRUCTURE
     1 H1K         1 TEMP              0 ****  ****    0 ROOT
