@<TRIPOS>MOLECULE
H1K
   34    35     1     0     0
SMALL
abcg2


@<TRIPOS>ATOM
      1 O1           1.1820    -0.8120    -0.5680 o          1 H1K      -0.556100
      2 C4           1.3100     0.0820     0.2410 c          1 H1K       0.663100
      3 N2           2.5220     0.6290     0.6140 ns         1 H1K      -0.338900
      4 C5           3.7710     0.3350     0.1070 ca         1 H1K       0.454900
      5 C8           4.8960     0.7380     0.8490 ca         1 H1K       0.236900
      6 N4           6.1170     0.5220     0.4170 nb         1 H1K      -0.608000
      7 C7           6.2570    -0.1040    -0.7500 ca         1 H1K       0.239900
      8 C6           5.1490    -0.4990    -1.4750 ca         1 H1K       0.328900
      9 N3           3.9080    -0.2750    -1.0550 nb         1 H1K      -0.648000
     10 N1           0.2650     0.6430     0.9180 ns         1 H1K      -0.165000
     11 C3          -1.0680     0.2790     0.6550 ca         1 H1K      -0.103000
     12 C2          -1.5310    -0.9910     0.9560 ca         1 H1K      -0.018000
     13 C9          -1.9480     1.2090     0.0910 ca         1 H1K       0.166100
     14 O2          -1.4350     2.4170    -0.1810 os         1 H1K      -0.343100
     15 C10         -2.2780     3.4150    -0.7260 c3         1 H1K       0.149900
     16 C11         -3.2750     0.8590    -0.1480 ca         1 H1K      -0.278000
     17 C12         -3.7300    -0.4250     0.1420 ca         1 H1K       0.188100
     18 C1          -2.8390    -1.3470     0.6940 ca         1 H1K       0.049000
     19 CL          -3.3960    -2.9430     1.0660 cl         1 H1K      -0.177000
     20 O3          -4.9820    -0.8430    -0.0700 os         1 H1K      -0.320100
     21 C13         -5.9260     0.0670    -0.6060 c3         1 H1K       0.147900
     22 H3           2.5220     1.2380     1.4180 hn         1 H1K       0.152000
     23 H6           4.7780     1.2440     1.8020 h4         1 H1K       0.024100
     24 H5           7.2600    -0.2890    -1.1100 h4         1 H1K       0.033100
     25 H4           5.2610    -1.0050    -2.4260 h4         1 H1K       0.033100
     26 H2           0.4170     1.5020     1.4260 hn         1 H1K       0.153000
     27 H1          -0.8610    -1.7090     1.4100 ha         1 H1K       0.146000
     28 H9          -2.6850     3.1170    -1.6950 h1         1 H1K       0.044367
     29 H7          -3.1030     3.6620    -0.0530 h1         1 H1K       0.044367
     30 H8          -1.6590     4.2980    -0.8610 h1         1 H1K       0.044367
     31 H10         -3.9540     1.5820    -0.5770 ha         1 H1K       0.125000
     32 H12         -6.0710     0.9310     0.0470 h1         1 H1K       0.044367
     33 H11         -5.6360     0.4140    -1.6000 h1         1 H1K       0.044367
     34 H13         -6.8640    -0.4770    -0.6840 h1         1 H1K       0.044367
@<TRIPOS>BOND
     1     1     2 2   
     2     2     3 1   
     3     2    10 1   
     4     3     4 1   
     5     3    22 1   
     6     4     5 ar  
     7     4     9 ar  
     8     5     6 ar  
     9     5    23 1   
    10     6     7 ar  
    11     7     8 ar  
    12     7    24 1   
    13     8     9 ar  
    14     8    25 1   
    15    10    11 1   
    16    10    26 1   
    17    11    12 ar  
    18    11    13 ar  
    19    12    18 ar  
    20    12    27 1   
    21    13    14 1   
    22    13    16 ar  
    23    14    15 1   
    24    15    28 1   
    25    15    29 1   
    26    15    30 1   
    27    16    17 ar  
    28    16    31 1   
    29    17    18 ar  
    30    17    20 1   
    31    18    19 1   
    32    20    21 1   
    33    21    32 1   
    34    21    33 1   
    35    21    34 1   
@<TRIPOS>SUBSTRUCTURE
     1 H1K         1 TEMP              0 ****  ****    0 ROOT
