@<TRIPOS>MOLECULE
H1L
   34    35     1     0     0
SMALL
bcc


@<TRIPOS>ATOM
      1 O1A          6.6330    -1.6020    -1.2060 o          1 H1L      -0.811300
      2 C1           6.5820    -1.2070    -0.0320 c          1 H1L       0.941600
      3 O1B          7.3650    -1.4790     0.8990 o          1 H1L      -0.811300
      4 C2           5.4290    -0.2620     0.3750 c3         1 H1L      -0.008900
      5 C2A          5.9660     1.0780     0.8610 c3         1 H1L      -0.100100
      6 O2           4.5690    -0.0880    -0.7470 os         1 H1L      -0.268900
      7 C3           3.3120     0.3490    -0.5830 ca         1 H1L       0.197100
      8 C4           2.7040     0.6210     0.6430 ca         1 H1L      -0.205500
      9 C5           1.3850     1.0570     0.6890 ca         1 H1L      -0.081000
     10 C6           2.5710     0.5290    -1.7560 ca         1 H1L      -0.205500
     11 C7           1.2580     0.9600    -1.7070 ca         1 H1L      -0.081000
     12 C8           0.6720     1.2260    -0.4810 ca         1 H1L       0.004100
     13 O8          -0.6200     1.7270    -0.4400 os         1 H1L      -0.336400
     14 C9          -1.6350     0.8850    -0.2510 ca         1 H1L       0.699600
     15 N9          -1.4200    -0.3990    -0.1240 nb         1 H1L      -0.726000
     16 C10         -2.4500    -1.2160     0.0690 ca         1 H1L       0.509200
     17 C11         -3.7530    -0.7670     0.1420 ca         1 H1L      -0.379600
     18 C12         -4.9040    -1.6890     0.3680 c3         1 H1L       0.736200
     19 F1          -4.5230    -2.9640     0.4580 f          1 H1L      -0.237300
     20 F2          -5.5610    -1.3890     1.4980 f          1 H1L      -0.237300
     21 F3          -5.8020    -1.6100    -0.6230 f          1 H1L      -0.237300
     22 C13         -3.9910     0.6020     0.0030 ca         1 H1L      -0.020000
     23 C14         -2.9230     1.4400    -0.1970 ca         1 H1L      -0.140900
     24 CL1         -3.1390     3.1350    -0.3770 cl         1 H1L      -0.071400
     25 H2           4.8800    -0.7540     1.1870 h1         1 H1L       0.030700
     26 H2A1         6.5530     1.5670     0.0820 hc         1 H1L       0.029700
     27 H2A2         5.1690     1.7600     1.1590 hc         1 H1L       0.029700
     28 H2A3         6.6110     0.9250     1.7240 hc         1 H1L       0.029700
     29 H4           3.2330     0.5040     1.5780 ha         1 H1L       0.148500
     30 H6           3.0340     0.3210    -2.7120 ha         1 H1L       0.148500
     31 H5           0.9280     1.2710     1.6460 ha         1 H1L       0.128000
     32 H7           0.6990     1.0970    -2.6240 ha         1 H1L       0.128000
     33 H10         -2.2050    -2.2670     0.1660 h4         1 H1L       0.041100
     34 H13         -4.9920     1.0110     0.0500 ha         1 H1L       0.157000
@<TRIPOS>BOND
     1     1     2 1   
     2     2     3 1   
     3     2     4 1   
     4     4     5 1   
     5     4     6 1   
     6     4    25 1   
     7     5    26 1   
     8     5    27 1   
     9     5    28 1   
    10     6     7 1   
    11     7     8 ar  
    12     7    10 ar  
    13     8     9 ar  
    14     8    29 1   
    15     9    12 ar  
    16     9    31 1   
    17    10    11 ar  
    18    10    30 1   
    19    11    12 ar  
    20    11    32 1   
    21    12    13 1   
    22    13    14 1   
    23    14    15 ar  
    24    14    23 ar  
    25    15    16 ar  
    26    16    17 ar  
    27    16    33 1   
    28    17    18 1   
    29    17    22 ar  
    30    18    19 1   
    31    18    20 1   
    32    18    21 1   
    33    22    23 ar  
    34    22    34 1   
    35    23    24 1   
@<TRIPOS>SUBSTRUCTURE
     1 H1L         1 TEMP              0 ****  ****    0 ROOT
