@<TRIPOS>MOLECULE
H1L
   34    35     1     0     0
SMALL
No Charge or Current Charge


@<TRIPOS>ATOM
      1 O1A          7.2430    -1.0490    -0.9810 o          1 H1L      -0.706000
      2 C1           6.8390    -0.9560     0.1730 c          1 H1L       0.731000
      3 O1B          7.4510    -1.4190     1.1270 o          1 H1L      -0.706000
      4 C2           5.4560    -0.2740     0.4530 c3         1 H1L       0.014300
      5 C2A          5.6260     1.0210     1.2900 c3         1 H1L      -0.100100
      6 O2           4.7650     0.0780    -0.7760 os         1 H1L      -0.292100
      7 C3           3.4190     0.3910    -0.8380 ca         1 H1L       0.197100
      8 C4           2.5330     0.2080     0.2480 ca         1 H1L      -0.187500
      9 C5           1.1730     0.5400     0.1140 ca         1 H1L      -0.063000
     10 C6           2.9260     0.8990    -2.0510 ca         1 H1L      -0.187500
     11 C7           1.5660     1.2320    -2.1870 ca         1 H1L      -0.063000
     12 C8           0.6850     1.0430    -1.1090 ca         1 H1L       0.004100
     13 O8          -0.6380     1.3990    -1.2630 os         1 H1L      -0.336400
     14 C9          -1.6860     0.7010    -0.6960 ca         1 H1L       0.634300
     15 N9          -1.6400    -0.6530    -0.6890 nb         1 H1L      -0.726000
     16 C10         -2.6810    -1.3200    -0.1500 ca         1 H1L       0.443900
     17 C11         -3.8060    -0.6790     0.3950 ca         1 H1L      -0.314300
     18 C12         -4.9370    -1.5220     0.9730 c3         1 H1L       0.372300
     19 F1          -4.4690    -2.5410     1.7270 f          1 H1L      -0.116000
     20 F2          -5.7700    -0.8060     1.7610 f          1 H1L      -0.116000
     21 F3          -5.6910    -2.0670    -0.0070 f          1 H1L      -0.116000
     22 C13         -3.8630     0.7300     0.3690 ca         1 H1L      -0.002000
     23 C14         -2.7850     1.4310    -0.1890 ca         1 H1L       0.016000
     24 Cl1         -2.8270     3.1980    -0.2360 cl         1 H1L      -0.163000
     25 H2           4.8720    -1.0060     1.0240 h1         1 H1L       0.030700
     26 H2A1         6.2470     1.7470     0.7530 hc         1 H1L       0.029700
     27 H2A2         4.6600     1.4900     1.5090 hc         1 H1L       0.029700
     28 H2A3         6.1130     0.7980     2.2470 hc         1 H1L       0.029700
     29 H4           2.8790    -0.1870     1.1980 ha         1 H1L       0.130500
     30 H6           3.6030     1.0400    -2.8890 ha         1 H1L       0.130500
     31 H5           0.5040     0.4070     0.9620 ha         1 H1L       0.110000
     32 H7           1.1950     1.6310    -3.1280 ha         1 H1L       0.110000
     33 H10         -2.6090    -2.4080    -0.1620 h4         1 H1L       0.041100
     34 H13         -4.7180     1.2750     0.7640 ha         1 H1L       0.139000
@<TRIPOS>BOND
     1     1     2 1   
     2     2     3 1   
     3     2     4 1   
     4     4     5 1   
     5     4     6 1   
     6     4    25 1   
     7     5    26 1   
     8     5    27 1   
     9     5    28 1   
    10     6     7 1   
    11     7     8 ar  
    12     7    10 ar  
    13     8     9 ar  
    14     8    29 1   
    15     9    12 ar  
    16     9    31 1   
    17    10    11 ar  
    18    10    30 1   
    19    11    12 ar  
    20    11    32 1   
    21    12    13 1   
    22    13    14 1   
    23    14    15 ar  
    24    14    23 ar  
    25    15    16 ar  
    26    16    17 ar  
    27    16    33 1   
    28    17    18 1   
    29    17    22 ar  
    30    18    19 1   
    31    18    20 1   
    32    18    21 1   
    33    22    23 ar  
    34    22    34 1   
    35    23    24 1   
@<TRIPOS>SUBSTRUCTURE
     1 H1L         1 TEMP              0 ****  ****    0 ROOT
