@<TRIPOS>MOLECULE
H1M
   33    33     1     0     0
SMALL
abcg2


@<TRIPOS>ATOM
      1 C9           1.0750     2.7300     1.6620 c3         1 H1M       0.148900
      2 O1           0.3390     1.5250     1.6950 os         1 H1M      -0.481000
      3 C1          -0.2580     1.1850     0.4840 c6         1 H1M       0.380300
      4 C2          -1.1430    -0.0420     0.7070 c6         1 H1M      -0.075700
      5 C7          -2.0590    -0.2840    -0.4970 c3         1 H1M      -0.080400
      6 C8          -3.2140     0.7000    -0.5610 c3         1 H1M       0.163600
      7 O8          -4.0030     0.3860    -1.6880 oh         1 H1M      -0.661000
      8 C3          -0.2380    -1.2330     1.0250 c6         1 H1M       0.179300
      9 O3          -1.0290    -2.3810     1.2130 oh         1 H1M      -0.659000
     10 C4           0.7920    -1.4330    -0.0820 c6         1 H1M       0.099300
     11 O4           1.6620    -2.4680     0.3330 oh         1 H1M      -0.726000
     12 C5           1.5670    -0.1310    -0.3170 c6         1 H1M       0.147300
     13 O5           0.6810     0.9540    -0.5300 os         1 H1M      -0.465000
     14 C6           2.4600    -0.2200    -1.5360 c3         1 H1M       0.168600
     15 O6           3.2460     0.9450    -1.6150 oh         1 H1M      -0.707000
     16 H9           1.3470     2.9730     2.6880 h1         1 H1M       0.036367
     17 H9A          1.9910     2.6470     1.0720 h1         1 H1M       0.036367
     18 H9B          0.4780     3.5560     1.2580 h1         1 H1M       0.036367
     19 H1          -0.8510     2.0310     0.1120 h2         1 H1M       0.069700
     20 H2          -1.7720     0.1510     1.5840 hc         1 H1M       0.079700
     21 H7          -1.4890    -0.2320    -1.4280 hc         1 H1M       0.068200
     22 H7A         -2.4730    -1.2920    -0.4390 hc         1 H1M       0.068200
     23 H8          -3.7960     0.6320     0.3680 h1         1 H1M       0.014700
     24 H8A         -2.8390     1.7300    -0.6200 h1         1 H1M       0.014700
     25 HO8         -4.7290     1.0150    -1.7310 ho         1 H1M       0.442000
     26 H3           0.3140    -1.0050     1.9490 h1         1 H1M       0.062700
     27 HO3         -0.4340    -3.1210     1.3730 ho         1 H1M       0.457000
     28 H4           0.2710    -1.7190    -1.0060 h1         1 H1M       0.051700
     29 HO4          1.9270    -2.9850    -0.4310 ho         1 H1M       0.508000
     30 H5           2.1990     0.0510     0.5640 h1         1 H1M       0.071700
     31 H6           3.0830    -1.1180    -1.4460 h1         1 H1M       0.023200
     32 H6A          1.8340    -0.3500    -2.4290 h1         1 H1M       0.023200
     33 HO6          3.7930     0.8820    -2.4020 ho         1 H1M       0.503000
@<TRIPOS>BOND
     1     1     2 1   
     2     1    16 1   
     3     1    17 1   
     4     1    18 1   
     5     2     3 1   
     6     3     4 1   
     7     3    13 1   
     8     3    19 1   
     9     4     5 1   
    10     4     8 1   
    11     4    20 1   
    12     5     6 1   
    13     5    21 1   
    14     5    22 1   
    15     6     7 1   
    16     6    23 1   
    17     6    24 1   
    18     7    25 1   
    19     8     9 1   
    20     8    10 1   
    21     8    26 1   
    22     9    27 1   
    23    10    11 1   
    24    10    12 1   
    25    10    28 1   
    26    11    29 1   
    27    12    13 1   
    28    12    14 1   
    29    12    30 1   
    30    14    15 1   
    31    14    31 1   
    32    14    32 1   
    33    15    33 1   
@<TRIPOS>SUBSTRUCTURE
     1 H1M         1 TEMP              0 ****  ****    0 ROOT
