@<TRIPOS>MOLECULE
H1M
   33    33     1     0     0
SMALL
No Charge or Current Charge


@<TRIPOS>ATOM
      1 C9           1.0980     2.8050     1.6850 c3         1 H1M       0.148900
      2 O1           0.3840     1.5580     1.7250 os         1 H1M      -0.481000
      3 C1          -0.3120     1.1840     0.5210 c6         1 H1M       0.380300
      4 C2          -1.1900    -0.0790     0.7600 c6         1 H1M      -0.075700
      5 C7          -2.1910    -0.3360    -0.4230 c3         1 H1M      -0.080400
      6 C8          -3.2380     0.7770    -0.6430 c3         1 H1M       0.163600
      7 O8          -4.1400     0.3900    -1.6840 oh         1 H1M      -0.661000
      8 C3          -0.2500    -1.2860     1.0590 c6         1 H1M       0.179300
      9 O3          -0.9880    -2.4980     1.2710 oh         1 H1M      -0.659000
     10 C4           0.7930    -1.4950    -0.0790 c6         1 H1M       0.099300
     11 O4           1.6680    -2.5980     0.2570 oh         1 H1M      -0.726000
     12 C5           1.5750    -0.1580    -0.2850 c6         1 H1M       0.147300
     13 O5           0.6450     0.9330    -0.5330 os         1 H1M      -0.465000
     14 C6           2.5820    -0.2220    -1.4820 c3         1 H1M       0.168600
     15 O6           3.2790     1.0180    -1.7110 oh         1 H1M      -0.707000
     16 H9           1.5700     3.0060     2.6550 h1         1 H1M       0.036367
     17 H9A          1.8880     2.7830     0.9220 h1         1 H1M       0.036367
     18 H9B          0.4190     3.6370     1.4570 h1         1 H1M       0.036367
     19 H1          -0.9610     2.0210     0.2240 h2         1 H1M       0.069700
     20 H2          -1.8070     0.1000     1.6510 hc         1 H1M       0.079700
     21 H7          -1.6430    -0.4790    -1.3610 hc         1 H1M       0.068200
     22 H7A         -2.7380    -1.2700    -0.2450 hc         1 H1M       0.068200
     23 H8          -3.7900     0.9450     0.2920 h1         1 H1M       0.014700
     24 H8A         -2.7350     1.7140    -0.9130 h1         1 H1M       0.014700
     25 HO8         -4.7930     1.1180    -1.7820 ho         1 H1M       0.442000
     26 H3           0.3120    -1.0490     1.9760 h1         1 H1M       0.062700
     27 HO3         -0.3140    -3.2090     1.1770 ho         1 H1M       0.457000
     28 H4           0.2540    -1.7240    -1.0100 h1         1 H1M       0.051700
     29 HO4          2.0550    -2.9420    -0.5830 ho         1 H1M       0.508000
     30 H5           2.1520     0.0640     0.6250 h1         1 H1M       0.071700
     31 H6           3.3080    -1.0210    -1.2820 h1         1 H1M       0.023200
     32 H6A          2.0230    -0.5090    -2.3830 h1         1 H1M       0.023200
     33 HO6          3.8180     0.8980    -2.5270 ho         1 H1M       0.503000
@<TRIPOS>BOND
     1     1     2 1   
     2     1    16 1   
     3     1    17 1   
     4     1    18 1   
     5     2     3 1   
     6     3     4 1   
     7     3    13 1   
     8     3    19 1   
     9     4     5 1   
    10     4     8 1   
    11     4    20 1   
    12     5     6 1   
    13     5    21 1   
    14     5    22 1   
    15     6     7 1   
    16     6    23 1   
    17     6    24 1   
    18     7    25 1   
    19     8     9 1   
    20     8    10 1   
    21     8    26 1   
    22     9    27 1   
    23    10    11 1   
    24    10    12 1   
    25    10    28 1   
    26    11    29 1   
    27    12    13 1   
    28    12    14 1   
    29    12    30 1   
    30    14    15 1   
    31    14    31 1   
    32    14    32 1   
    33    15    33 1   
@<TRIPOS>SUBSTRUCTURE
     1 H1M         1 TEMP              0 ****  ****    0 ROOT
