@<TRIPOS>MOLECULE
H1N
   69    73     1     0     0
SMALL
abcg2


@<TRIPOS>ATOM
      1 CAJ         14.1620    -4.5130     3.3980 c6         1 H1N       0.168300
      2 CAL         13.4640    -5.8690     3.4370 c6         1 H1N      -0.075400
      3 CAW         12.1370    -5.8140     2.6810 c6         1 H1N      -0.074400
      4 CAV         12.3610    -5.2840     1.2650 c6         1 H1N      -0.075400
      5 CAK         13.1020    -3.9500     1.2980 c6         1 H1N       0.168300
      6 NAI         14.3680    -4.0720     2.0200 n3         1 H1N      -0.726600
      7 CAH         15.2170    -2.8760     1.9100 c3         1 H1N       0.219100
      8 CAG         14.6270    -1.6200     2.5130 ca         1 H1N      -0.128300
      9 CAS         13.8350    -0.7600     1.7490 ca         1 H1N      -0.091500
     10 CAR         13.1750     0.3170     2.3260 ca         1 H1N      -0.113000
     11 CAF         14.7810    -1.3340     3.8710 ca         1 H1N      -0.091500
     12 CAE         14.1080    -0.2760     4.4650 ca         1 H1N      -0.113000
     13 CAQ         13.2660     0.5340     3.7000 ca         1 H1N       0.130400
     14 NAP         12.5390     1.5910     4.2820 ne         1 H1N      -0.548100
     15 CAO         11.6610     1.3720     5.1780 cf         1 H1N       0.510900
     16 CAN         11.1990     0.0330     5.6380 ca         1 H1N      -0.188900
     17 CAM         10.8040    -0.9340     4.7090 ca         1 H1N      -0.087000
     18 CAC         10.3800    -2.1840     5.1360 ca         1 H1N      -0.113500
     19 CAA         10.3540    -2.4880     6.4940 ca         1 H1N      -0.097000
     20 CAB         10.7390    -1.5280     7.4250 ca         1 H1N      -0.113500
     21 CAD         11.1460    -0.2680     6.9990 ca         1 H1N      -0.087000
     22 CBD         10.9340     2.5630     5.7750 c5         1 H1N      -0.137700
     23 CBC          9.6360     2.8330     5.0450 ca         1 H1N      -0.134300
     24 CBB          8.5190     2.0500     4.8420 ca         1 H1N      -0.078000
     25 CBJ         11.7010     3.8860     5.6130 c          1 H1N       0.585000
     26 OBK         12.7880     4.1630     6.0850 o          1 H1N      -0.503000
     27 NBI         10.9170     4.7130     4.8610 ns         1 H1N      -0.145000
     28 CBH          9.6970     4.1260     4.5150 ca         1 H1N      -0.013000
     29 CBG          8.6560     4.6580     3.7760 ca         1 H1N      -0.136000
     30 CBF          7.5370     3.8570     3.5560 ca         1 H1N      -0.041000
     31 CBA          7.4620     2.5710     4.0860 ca         1 H1N       0.196000
     32 NAZ          6.3020     1.7710     3.8330 nu         1 H1N      -0.874100
     33 SAY          4.8760     2.0870     4.6210 s6         1 H1N       1.198100
     34 OBE          3.9470     1.0860     4.1480 o          1 H1N      -0.532000
     35 OAU          4.5690     3.4830     4.4190 o          1 H1N      -0.532000
     36 CAX          5.1710     1.8530     6.3710 c3         1 H1N      -0.351400
     37 CAT          5.4760     0.4140     6.7580 c3         1 H1N      -0.063100
     38 HAJ1        15.1370    -4.5710     3.8870 h1         1 H1N       0.031450
     39 HAJ2        13.5570    -3.7870     3.9670 h1         1 H1N       0.031450
     40 HAL1        13.3040    -6.1620     4.4780 hc         1 H1N       0.045700
     41 HAL2        14.1160    -6.6210     2.9810 hc         1 H1N       0.045700
     42 HAW1        11.4490    -5.1460     3.2110 hc         1 H1N       0.036200
     43 HAW2        11.6670    -6.8000     2.6540 hc         1 H1N       0.036200
     44 HAV1        11.4090    -5.1520     0.7460 hc         1 H1N       0.045700
     45 HAV2        12.9500    -6.0060     0.6920 hc         1 H1N       0.045700
     46 HAK1        13.3190    -3.6080     0.2840 h1         1 H1N       0.031450
     47 HAK2        12.4470    -3.1930     1.7610 h1         1 H1N       0.031450
     48 HAH1        15.4150    -2.7130     0.8480 h1         1 H1N       0.059200
     49 HAH2        16.1670    -3.1070     2.3970 h1         1 H1N       0.059200
     50 HAS         13.7220    -0.9440     0.6870 ha         1 H1N       0.114000
     51 HAR         12.5510     0.9680     1.7270 ha         1 H1N       0.124000
     52 HAF         15.4200    -1.9630     4.4790 ha         1 H1N       0.114000
     53 HAE         14.2140    -0.0830     5.5250 ha         1 H1N       0.124000
     54 HAM         10.8260    -0.7050     3.6530 ha         1 H1N       0.121000
     55 HAC         10.0730    -2.9250     4.4070 ha         1 H1N       0.118500
     56 HAA         10.0330    -3.4670     6.8260 ha         1 H1N       0.117000
     57 HAB         10.7220    -1.7570     8.4820 ha         1 H1N       0.118500
     58 HAD         11.4460     0.4710     7.7310 ha         1 H1N       0.121000
     59 HBB          8.4510     1.0520     5.2550 ha         1 H1N       0.124000
     60 HBI         11.1860     5.6580     4.6240 hn         1 H1N       0.179000
     61 HBG          8.7100     5.6580     3.3660 ha         1 H1N       0.133000
     62 HBF          6.7130     4.2310     2.9670 ha         1 H1N       0.149000
     63 HAZ          6.4770     0.7730     3.7960 hn         1 H1N       0.487000
     64 HAX1         4.2610     2.2220     6.8460 h1         1 H1N       0.102700
     65 HAX2         5.9860     2.5350     6.6190 h1         1 H1N       0.102700
     66 HAT1         5.6310     0.3650     7.8360 hc         1 H1N       0.046033
     67 HAT2         6.3810     0.0480     6.2720 hc         1 H1N       0.046033
     68 HAT3         4.6490    -0.2450     6.4990 hc         1 H1N       0.046033
     69 HC1         10.7650     2.3950     6.8410 hc         1 H1N       0.101700
@<TRIPOS>BOND
     1     1     2 1   
     2     1     6 1   
     3     1    38 1   
     4     1    39 1   
     5     2     3 1   
     6     2    40 1   
     7     2    41 1   
     8     3     4 1   
     9     3    42 1   
    10     3    43 1   
    11     4     5 1   
    12     4    44 1   
    13     4    45 1   
    14     5     6 1   
    15     5    46 1   
    16     5    47 1   
    17     6     7 1   
    18     7     8 1   
    19     7    48 1   
    20     7    49 1   
    21     8     9 ar  
    22     8    11 ar  
    23     9    10 ar  
    24     9    50 1   
    25    10    13 ar  
    26    10    51 1   
    27    11    12 ar  
    28    11    52 1   
    29    12    13 ar  
    30    12    53 1   
    31    13    14 1   
    32    14    15 2   
    33    15    16 1   
    34    15    22 1   
    35    16    17 ar  
    36    16    21 ar  
    37    17    18 ar  
    38    17    54 1   
    39    18    19 ar  
    40    18    55 1   
    41    19    20 ar  
    42    19    56 1   
    43    20    21 ar  
    44    20    57 1   
    45    21    58 1   
    46    22    23 1   
    47    22    25 1   
    48    22    69 1   
    49    23    24 ar  
    50    23    28 ar  
    51    24    31 ar  
    52    24    59 1   
    53    25    26 2   
    54    25    27 1   
    55    27    28 1   
    56    27    60 1   
    57    28    29 ar  
    58    29    30 ar  
    59    29    61 1   
    60    30    31 ar  
    61    30    62 1   
    62    31    32 1   
    63    32    33 1   
    64    32    63 1   
    65    33    34 2   
    66    33    35 2   
    67    33    36 1   
    68    36    37 1   
    69    36    64 1   
    70    36    65 1   
    71    37    66 1   
    72    37    67 1   
    73    37    68 1   
@<TRIPOS>SUBSTRUCTURE
     1 H1N         1 TEMP              0 ****  ****    0 ROOT
