@<TRIPOS>MOLECULE
H1N
   69    73     1     0     0
SMALL
No Charge or Current Charge


@<TRIPOS>ATOM
      1 CAJ         15.4500    -4.3820     3.5930 c6         1 H1N       0.168300
      2 CAL         15.3140    -5.9160     3.7640 c6         1 H1N      -0.075400
      3 CAW         14.1790    -6.4750     2.8740 c6         1 H1N      -0.074400
      4 CAV         14.3900    -6.0400     1.4060 c6         1 H1N      -0.075400
      5 CAK         14.5510    -4.5030     1.2990 c6         1 H1N       0.168300
      6 NAI         15.6580    -4.0080     2.1650 n3         1 H1N      -0.726600
      7 CAH         15.9600    -2.5650     1.9710 c3         1 H1N       0.219100
      8 CAG         14.8240    -1.6200     2.3660 ca         1 H1N      -0.128300
      9 CAS         13.8570    -1.2330     1.4170 ca         1 H1N      -0.091500
     10 CAR         12.8110    -0.3680     1.7830 ca         1 H1N      -0.113000
     11 CAF         14.7420    -1.1130     3.6780 ca         1 H1N      -0.091500
     12 CAE         13.6950    -0.2480     4.0410 ca         1 H1N      -0.113000
     13 CAQ         12.7200     0.1210     3.0960 ca         1 H1N       0.130400
     14 NAP         11.6600     0.9710     3.4530 ne         1 H1N      -0.548100
     15 CAO         10.8210     0.6520     4.4020 cf         1 H1N       0.510900
     16 CAN          9.9750    -0.5670     4.3190 ca         1 H1N      -0.188900
     17 CAM          9.5550    -1.0650     3.0640 ca         1 H1N      -0.087000
     18 CAC          8.7900    -2.2400     2.9770 ca         1 H1N      -0.113500
     19 CAA          8.4440    -2.9430     4.1400 ca         1 H1N      -0.097000
     20 CAB          8.8720    -2.4740     5.3920 ca         1 H1N      -0.113500
     21 CAD          9.6390    -1.2990     5.4820 ca         1 H1N      -0.087000
     22 CBD         10.7450     1.6250     5.6110 c5         1 H1N      -0.137700
     23 CBC          9.4100     2.3530     5.4060 ca         1 H1N      -0.134300
     24 CBB          8.0910     1.8780     5.4870 ca         1 H1N      -0.078000
     25 CBJ         11.7940     2.7760     5.5090 c          1 H1N       0.585000
     26 OBK         12.9750     2.8030     5.8350 o          1 H1N      -0.503000
     27 NBI         11.0310     3.8620     5.1310 ns         1 H1N      -0.145000
     28 CBH          9.6560     3.6700     5.0910 ca         1 H1N      -0.013000
     29 CBG          8.6340     4.5850     4.8280 ca         1 H1N      -0.136000
     30 CBF          7.3040     4.1200     4.8950 ca         1 H1N      -0.041000
     31 CBA          7.0220     2.7670     5.2330 ca         1 H1N       0.196000
     32 NAZ          5.7170     2.2680     5.3200 nu         1 H1N      -0.874100
     33 SAY          4.2950     3.0630     5.6550 s6         1 H1N       1.198100
     34 OBE          3.3200     1.9990     5.8960 o          1 H1N      -0.532000
     35 OAU          4.0900     4.0260     4.5710 o          1 H1N      -0.532000
     36 CAX          4.5950     3.9470     7.1960 c3         1 H1N      -0.351400
     37 CAT          5.0150     3.0380     8.3770 c3         1 H1N      -0.063100
     38 HAJ1        16.2930    -4.0320     4.2060 h1         1 H1N       0.031450
     39 HAJ2        14.5400    -3.9030     3.9850 h1         1 H1N       0.031450
     40 HAL1        15.1190    -6.1560     4.8170 hc         1 H1N       0.045700
     41 HAL2        16.2650    -6.3990     3.5010 hc         1 H1N       0.045700
     42 HAW1        13.2090    -6.1070     3.2350 hc         1 H1N       0.036200
     43 HAW2        14.1480    -7.5710     2.9440 hc         1 H1N       0.036200
     44 HAV1        13.5410    -6.3680     0.7910 hc         1 H1N       0.045700
     45 HAV2        15.2830    -6.5300     0.9960 hc         1 H1N       0.045700
     46 HAK1        14.7410    -4.2400     0.2480 h1         1 H1N       0.031450
     47 HAK2        13.6000    -4.0290     1.5860 h1         1 H1N       0.031450
     48 HAH1        16.2160    -2.3810     0.9180 h1         1 H1N       0.059200
     49 HAH2        16.8540    -2.2950     2.5500 h1         1 H1N       0.059200
     50 HAS         13.9120    -1.6060     0.3970 ha         1 H1N       0.114000
     51 HAR         12.0670    -0.0790     1.0440 ha         1 H1N       0.124000
     52 HAF         15.4870    -1.3930     4.4190 ha         1 H1N       0.114000
     53 HAE         13.6420     0.1310     5.0580 ha         1 H1N       0.124000
     54 HAM          9.8100    -0.5330     2.1490 ha         1 H1N       0.121000
     55 HAC          8.4650    -2.6050     2.0050 ha         1 H1N       0.118500
     56 HAA          7.8520    -3.8540     4.0720 ha         1 H1N       0.117000
     57 HAB          8.6150    -3.0240     6.2940 ha         1 H1N       0.118500
     58 HAD          9.9700    -0.9690     6.4630 ha         1 H1N       0.121000
     59 HBB          7.8920     0.8410     5.7430 ha         1 H1N       0.124000
     60 HBI         11.4350     4.7860     5.0550 hn         1 H1N       0.179000
     61 HBG          8.8550     5.6210     4.5830 ha         1 H1N       0.133000
     62 HBF          6.5010     4.8170     4.6830 ha         1 H1N       0.149000
     63 HAZ          5.5870     1.3260     5.6660 hn         1 H1N       0.487000
     64 HAX1         3.6600     4.4690     7.4260 h1         1 H1N       0.102700
     65 HAX2         5.3740     4.6840     6.9810 h1         1 H1N       0.102700
     66 HAT1         5.1580     3.6370     9.2850 hc         1 H1N       0.046033
     67 HAT2         5.9590     2.5210     8.1640 hc         1 H1N       0.046033
     68 HAT3         4.2470     2.2830     8.5880 hc         1 H1N       0.046033
     69 HC1         10.8690     1.1060     6.5640 hc         1 H1N       0.101700
@<TRIPOS>BOND
     1     1     2 1   
     2     1     6 1   
     3     1    38 1   
     4     1    39 1   
     5     2     3 1   
     6     2    40 1   
     7     2    41 1   
     8     3     4 1   
     9     3    42 1   
    10     3    43 1   
    11     4     5 1   
    12     4    44 1   
    13     4    45 1   
    14     5     6 1   
    15     5    46 1   
    16     5    47 1   
    17     6     7 1   
    18     7     8 1   
    19     7    48 1   
    20     7    49 1   
    21     8     9 ar  
    22     8    11 ar  
    23     9    10 ar  
    24     9    50 1   
    25    10    13 ar  
    26    10    51 1   
    27    11    12 ar  
    28    11    52 1   
    29    12    13 ar  
    30    12    53 1   
    31    13    14 1   
    32    14    15 2   
    33    15    16 1   
    34    15    22 1   
    35    16    17 ar  
    36    16    21 ar  
    37    17    18 ar  
    38    17    54 1   
    39    18    19 ar  
    40    18    55 1   
    41    19    20 ar  
    42    19    56 1   
    43    20    21 ar  
    44    20    57 1   
    45    21    58 1   
    46    22    23 1   
    47    22    25 1   
    48    22    69 1   
    49    23    24 ar  
    50    23    28 ar  
    51    24    31 ar  
    52    24    59 1   
    53    25    26 2   
    54    25    27 1   
    55    27    28 1   
    56    27    60 1   
    57    28    29 ar  
    58    29    30 ar  
    59    29    61 1   
    60    30    31 ar  
    61    30    62 1   
    62    31    32 1   
    63    32    33 1   
    64    32    63 1   
    65    33    34 2   
    66    33    35 2   
    67    33    36 1   
    68    36    37 1   
    69    36    64 1   
    70    36    65 1   
    71    37    66 1   
    72    37    67 1   
    73    37    68 1   
@<TRIPOS>SUBSTRUCTURE
     1 H1N         1 TEMP              0 ****  ****    0 ROOT
