@<TRIPOS>MOLECULE
H1O
   54    58     1     0     0
SMALL
abcg2


@<TRIPOS>ATOM
      1 C01         17.4580    66.4960    47.9980 ca         1 H1O      -0.103000
      2 C02         17.0540    65.2150    47.6710 ca         1 H1O      -0.110000
      3 C03         17.0930    64.8530    46.3280 ca         1 H1O      -0.055200
      4 C04         17.5150    65.7390    45.3090 ca         1 H1O      -0.081800
      5 C05         17.8970    67.0460    45.6700 ca         1 H1O      -0.079900
      6 C06         17.8740    67.3970    47.0130 ca         1 H1O      -0.086000
      7 C08         17.0090    63.7510    44.4080 cc         1 H1O      -0.147100
      8 C09         17.4590    65.0000    44.0870 cd         1 H1O      -0.261200
      9 C10         18.2960    68.0400    44.6780 cc         1 H1O       0.476400
     10 C12         18.3310    69.1170    42.7560 ca         1 H1O      -0.068200
     11 C13         19.1860    69.7130    43.6980 ca         1 H1O       0.069400
     12 C15         18.1860    69.5820    41.4480 cp         1 H1O      -0.050000
     13 C16         18.9610    70.6870    41.1170 ca         1 H1O      -0.080000
     14 C17         19.8190    71.2970    42.0410 ca         1 H1O      -0.139000
     15 C18         19.9450    70.8270    43.3360 ca         1 H1O      -0.043000
     16 C19         17.2880    68.9110    40.4880 cp         1 H1O       0.046000
     17 C20         15.9940    68.5690    40.8730 ca         1 H1O      -0.228500
     18 C21         15.1610    67.8910    39.9870 ca         1 H1O       0.159600
     19 C22         15.6160    67.5730    38.7050 ca         1 H1O       0.021100
     20 C23         16.9120    67.9310    38.3200 ca         1 H1O       0.159600
     21 C24         17.7460    68.6010    39.2110 ca         1 H1O      -0.228500
     22 C27         13.4120    67.7250    41.5770 c3         1 H1O       0.144900
     23 C28         14.8840    65.5060    37.9150 c3         1 H1O       0.147900
     24 C30         18.5580    67.9160    36.6170 c3         1 H1O       0.144900
     25 N07         16.7830    63.6560    45.7480 na         1 H1O      -0.085700
     26 N11         17.7900    68.0480    43.4150 na         1 H1O      -0.303600
     27 N14         19.1370    69.0230    44.8820 nd         1 H1O      -0.575100
     28 O25         14.8020    66.9230    37.8340 os         1 H1O      -0.325100
     29 O26         13.9060    67.5080    40.2700 os         1 H1O      -0.323600
     30 O29         17.2670    67.5710    37.0760 os         1 H1O      -0.323600
     31 H1          17.4440    66.8130    49.0320 ha         1 H1O       0.117000
     32 H2          16.7260    64.5220    48.4360 ha         1 H1O       0.115000
     33 H3          18.1670    68.3980    47.3000 ha         1 H1O       0.134000
     34 H4          16.8350    62.9020    43.7650 h4         1 H1O       0.213000
     35 H5          17.7370    65.3150    43.0940 ha         1 H1O       0.207000
     36 H6          18.8860    71.0980    40.1170 ha         1 H1O       0.115000
     37 H7          20.3920    72.1600    41.7280 ha         1 H1O       0.115000
     38 H8          20.6110    71.3020    44.0450 ha         1 H1O       0.129000
     39 H9          15.6320    68.8620    41.8490 ha         1 H1O       0.125000
     40 H10         18.7600    68.8590    38.9390 ha         1 H1O       0.125000
     41 H11         12.4090    67.3080    41.6010 h1         1 H1O       0.042200
     42 H12         14.0230    67.2220    42.3320 h1         1 H1O       0.042200
     43 H13         13.3550    68.7890    41.8220 h1         1 H1O       0.042200
     44 H14         14.1890    65.1020    37.1820 h1         1 H1O       0.032367
     45 H15         15.8880    65.1450    37.6820 h1         1 H1O       0.032367
     46 H16         14.6010    65.1390    38.9050 h1         1 H1O       0.032367
     47 H17         18.6290    67.5480    35.5960 h1         1 H1O       0.042200
     48 H18         18.7160    68.9970    36.6130 h1         1 H1O       0.042200
     49 H19         19.3440    67.4460    37.2130 h1         1 H1O       0.042200
     50 H20         15.3870    62.7020    46.9840 h1         1 H1O       0.051033
     51 H21         16.1180    61.6950    45.7300 h1         1 H1O       0.051033
     52 H22         17.0550    62.1320    47.1630 h1         1 H1O       0.051033
     53 H23         17.0710    67.4350    43.0620 hn         1 H1O       0.365000
     54 C31         16.3110    62.4860    46.4490 c3         1 H1O       0.063900
@<TRIPOS>BOND
     1     1     2 ar  
     2     1     6 ar  
     3     1    31 1   
     4     2     3 ar  
     5     2    32 1   
     6     3     4 ar  
     7     3    25 1   
     8     4     5 ar  
     9     4     8 1   
    10     5     6 ar  
    11     5     9 1   
    12     6    33 1   
    13     7     8 2   
    14     7    25 1   
    15     7    34 1   
    16     8    35 1   
    17     9    26 1   
    18     9    27 2   
    19    10    11 ar  
    20    10    12 ar  
    21    10    26 1   
    22    11    15 ar  
    23    11    27 1   
    24    12    13 ar  
    25    12    16 1   
    26    13    14 ar  
    27    13    36 1   
    28    14    15 ar  
    29    14    37 1   
    30    15    38 1   
    31    16    17 ar  
    32    16    21 ar  
    33    17    18 ar  
    34    17    39 1   
    35    18    19 ar  
    36    18    29 1   
    37    19    20 ar  
    38    19    28 1   
    39    20    21 ar  
    40    20    30 1   
    41    21    40 1   
    42    22    29 1   
    43    22    41 1   
    44    22    42 1   
    45    22    43 1   
    46    23    28 1   
    47    23    44 1   
    48    23    45 1   
    49    23    46 1   
    50    24    30 1   
    51    24    47 1   
    52    24    48 1   
    53    24    49 1   
    54    25    54 1   
    55    26    53 1   
    56    50    54 1   
    57    51    54 1   
    58    52    54 1   
@<TRIPOS>SUBSTRUCTURE
     1 H1O         1 TEMP              0 ****  ****    0 ROOT
