@<TRIPOS>MOLECULE
H1O
   54    58     1     0     0
SMALL
No Charge or Current Charge


@<TRIPOS>ATOM
      1 C01         17.5890    66.4650    48.1030 ca         1 H1O      -0.103000
      2 C02         17.2000    65.1650    47.7280 ca         1 H1O      -0.110000
      3 C03         17.1930    64.8510    46.3610 ca         1 H1O      -0.055200
      4 C04         17.5440    65.7750    45.4090 ca         1 H1O      -0.081800
      5 C05         17.9060    67.1010    45.7380 ca         1 H1O      -0.079900
      6 C06         17.9450    67.4190    47.1200 ca         1 H1O      -0.086000
      7 C08         17.0610    63.7440    44.3500 cc         1 H1O      -0.147100
      8 C09         17.4710    65.0550    44.1520 cd         1 H1O      -0.261200
      9 C10         18.2810    68.1100    44.7370 cc         1 H1O       0.476400
     10 C12         18.3600    69.2050    42.8330 ca         1 H1O      -0.068200
     11 C13         19.0790    69.8770    43.7620 ca         1 H1O       0.069400
     12 C15         18.1950    69.5630    41.4800 cp         1 H1O      -0.050000
     13 C16         18.8790    70.7570    41.1130 ca         1 H1O      -0.080000
     14 C17         19.6350    71.4960    42.0630 ca         1 H1O      -0.139000
     15 C18         19.7410    71.0590    43.4060 ca         1 H1O      -0.043000
     16 C19         17.3920    68.7730    40.4970 cp         1 H1O       0.046000
     17 C20         16.0980    68.3080    40.8120 ca         1 H1O      -0.228500
     18 C21         15.3310    67.5560    39.8930 ca         1 H1O       0.159600
     19 C22         15.8750    67.2640    38.6040 ca         1 H1O       0.021100
     20 C23         17.1680    67.7420    38.2800 ca         1 H1O       0.159600
     21 C24         17.9100    68.4880    39.2190 ca         1 H1O      -0.228500
     22 C27         13.4760    67.3490    41.5350 c3         1 H1O       0.144900
     23 C28         13.9090    65.9530    37.7390 c3         1 H1O       0.147900
     24 C30         18.9790    67.8920    36.5930 c3         1 H1O       0.144900
     25 N07         16.8870    63.6450    45.7410 na         1 H1O      -0.085700
     26 N11         17.8510    68.0900    43.4110 na         1 H1O      -0.303600
     27 N14         19.0330    69.2130    44.9870 nd         1 H1O      -0.575100
     28 O25         15.2190    66.5320    37.6110 os         1 H1O      -0.325100
     29 O26         14.0660    67.1130    40.2440 os         1 H1O      -0.323600
     30 O29         17.6780    67.4540    37.0230 os         1 H1O      -0.323600
     31 H1          17.6160    66.7380    49.1550 ha         1 H1O       0.117000
     32 H2          16.9280    64.4290    48.4810 ha         1 H1O       0.115000
     33 H3          18.2380    68.4170    47.4400 ha         1 H1O       0.134000
     34 H4          16.9060    62.9170    43.6620 h4         1 H1O       0.213000
     35 H5          17.7440    65.4410    43.1740 ha         1 H1O       0.207000
     36 H6          18.8130    71.1190    40.0900 ha         1 H1O       0.115000
     37 H7          20.1410    72.4070    41.7540 ha         1 H1O       0.115000
     38 H8          20.3230    71.6150    44.1360 ha         1 H1O       0.129000
     39 H9          15.6950    68.5680    41.7850 ha         1 H1O       0.125000
     40 H10         18.9050    68.8490    38.9810 ha         1 H1O       0.125000
     41 H11         12.4780    66.8950    41.5830 h1         1 H1O       0.042200
     42 H12         14.0880    66.9070    42.3310 h1         1 H1O       0.042200
     43 H13         13.3680    68.4240    41.7240 h1         1 H1O       0.042200
     44 H14         13.6380    65.4280    36.8140 h1         1 H1O       0.032367
     45 H15         13.8800    65.2240    38.5580 h1         1 H1O       0.032367
     46 H16         13.1520    66.7280    37.9150 h1         1 H1O       0.032367
     47 H17         19.1740    67.5540    35.5680 h1         1 H1O       0.042200
     48 H18         19.0460    68.9880    36.6080 h1         1 H1O       0.042200
     49 H19         19.7640    67.4810    37.2410 h1         1 H1O       0.042200
     50 H20         15.5550    62.6920    47.0700 h1         1 H1O       0.051033
     51 H21         16.2550    61.6310    45.8130 h1         1 H1O       0.051033
     52 H22         17.2610    62.1610    47.1930 h1         1 H1O       0.051033
     53 H23         17.2400    67.4040    42.9950 hn         1 H1O       0.365000
     54 C31         16.4640    62.4590    46.5010 c3         1 H1O       0.063900
@<TRIPOS>BOND
     1     1     2 ar  
     2     1     6 ar  
     3     1    31 1   
     4     2     3 ar  
     5     2    32 1   
     6     3     4 ar  
     7     3    25 1   
     8     4     5 ar  
     9     4     8 1   
    10     5     6 ar  
    11     5     9 1   
    12     6    33 1   
    13     7     8 2   
    14     7    25 1   
    15     7    34 1   
    16     8    35 1   
    17     9    26 1   
    18     9    27 2   
    19    10    11 ar  
    20    10    12 ar  
    21    10    26 1   
    22    11    15 ar  
    23    11    27 1   
    24    12    13 ar  
    25    12    16 1   
    26    13    14 ar  
    27    13    36 1   
    28    14    15 ar  
    29    14    37 1   
    30    15    38 1   
    31    16    17 ar  
    32    16    21 ar  
    33    17    18 ar  
    34    17    39 1   
    35    18    19 ar  
    36    18    29 1   
    37    19    20 ar  
    38    19    28 1   
    39    20    21 ar  
    40    20    30 1   
    41    21    40 1   
    42    22    29 1   
    43    22    41 1   
    44    22    42 1   
    45    22    43 1   
    46    23    28 1   
    47    23    44 1   
    48    23    45 1   
    49    23    46 1   
    50    24    30 1   
    51    24    47 1   
    52    24    48 1   
    53    24    49 1   
    54    25    54 1   
    55    26    53 1   
    56    50    54 1   
    57    51    54 1   
    58    52    54 1   
@<TRIPOS>SUBSTRUCTURE
     1 H1O         1 TEMP              0 ****  ****    0 ROOT
