@<TRIPOS>MOLECULE
H1P
   31    33     1     0     0
SMALL
abcg2


@<TRIPOS>ATOM
      1 C4           3.4930     1.8120    -0.3600 ca         1 H1P      -0.099000
      2 C5           2.5690     2.8400    -0.2370 ca         1 H1P      -0.110000
      3 C6           0.6500    -1.7360     0.8540 c          1 H1P       0.563000
      4 C7           0.3740    -3.1670     0.4370 c5         1 H1P      -0.130200
      5 C8           0.9850    -3.2600    -0.9240 c2         1 H1P      -0.303200
      6 C10         -0.6910     0.9540    -0.0750 cp         1 H1P      -0.052000
      7 C13         -3.4150     0.4860     0.0500 ca         1 H1P       0.174000
      8 C15         -1.3230     0.1740    -1.0420 ca         1 H1P      -0.063500
      9 F           -4.7380     0.2600     0.1110 f          1 H1P      -0.180000
     10 C12         -2.8260     1.2680     1.0230 ca         1 H1P      -0.155000
     11 C11         -1.4600     1.4940     0.9530 ca         1 H1P      -0.063500
     12 C14         -2.6880    -0.0660    -0.9870 ca         1 H1P      -0.155000
     13 C1           0.7590     1.2300    -0.1420 cp         1 H1P      -0.023000
     14 C2           1.7050     0.2040    -0.2370 ca         1 H1P      -0.028000
     15 C3           3.0590     0.4950    -0.3470 ca         1 H1P      -0.117000
     16 C            1.2180     2.5470    -0.1260 ca         1 H1P      -0.092000
     17 N            1.2930    -1.1440    -0.2050 n          1 H1P      -0.168600
     18 C9           1.4990    -2.0740    -1.2380 c2         1 H1P      -0.071400
     19 H1           4.5480     2.0300    -0.4500 ha         1 H1P       0.118000
     20 H2           2.8960     3.8720    -0.2380 ha         1 H1P       0.118000
     21 H3           0.8080    -3.8610     1.1610 hc         1 H1P       0.090200
     22 H4          -0.7050    -3.3510     0.4380 hc         1 H1P       0.090200
     23 H5           1.0000    -4.1400    -1.5460 ha         1 H1P       0.209000
     24 H6          -0.7560    -0.2410    -1.8660 ha         1 H1P       0.121000
     25 H7          -3.4180     1.6890     1.8250 ha         1 H1P       0.131500
     26 H8          -0.9850     2.0930     1.7200 ha         1 H1P       0.121000
     27 H9          -3.1770    -0.6650    -1.7440 ha         1 H1P       0.131500
     28 H10          3.7740    -0.3150    -0.4080 ha         1 H1P       0.122000
     29 H11          0.5000     3.3530    -0.0550 ha         1 H1P       0.120000
     30 H12          2.0110    -1.7600    -2.1350 h4         1 H1P       0.214000
     31 O            0.3870    -1.1940     1.9050 o          1 H1P      -0.510000
@<TRIPOS>BOND
     1     1     2 ar  
     2     1    15 ar  
     3     1    19 1   
     4     2    16 ar  
     5     2    20 1   
     6     3     4 1   
     7     3    17 1   
     8     3    31 2   
     9     4     5 1   
    10     4    21 1   
    11     4    22 1   
    12     5    18 2   
    13     5    23 1   
    14     6     8 ar  
    15     6    11 ar  
    16     6    13 1   
    17     7     9 1   
    18     7    10 ar  
    19     7    12 ar  
    20     8    12 ar  
    21     8    24 1   
    22    10    11 ar  
    23    10    25 1   
    24    11    26 1   
    25    12    27 1   
    26    13    14 ar  
    27    13    16 ar  
    28    14    15 ar  
    29    14    17 1   
    30    15    28 1   
    31    16    29 1   
    32    17    18 1   
    33    18    30 1   
@<TRIPOS>SUBSTRUCTURE
     1 H1P         1 TEMP              0 ****  ****    0 ROOT
