@<TRIPOS>MOLECULE
H1P
   31    33     1     0     0
SMALL
No Charge or Current Charge


@<TRIPOS>ATOM
      1 C4           3.5560     1.8460    -0.3620 ca         1 H1P      -0.099000
      2 C5           2.6040     2.8730    -0.2410 ca         1 H1P      -0.110000
      3 C6           0.6340    -1.7280     0.8960 c          1 H1P       0.563000
      4 C7           0.3090    -3.1690     0.4240 c5         1 H1P      -0.130200
      5 C8           0.9840    -3.2780    -0.9360 c2         1 H1P      -0.303200
      6 C10         -0.6930     0.9490    -0.0790 cp         1 H1P      -0.052000
      7 C13         -3.4770     0.4530     0.0640 ca         1 H1P       0.174000
      8 C15         -1.3420     0.1530    -1.0570 ca         1 H1P      -0.063500
      9 F           -4.8040     0.2140     0.1350 f          1 H1P      -0.180000
     10 C12         -2.8600     1.2560     1.0350 ca         1 H1P      -0.155000
     11 C11         -1.4770     1.5040     0.9610 ca         1 H1P      -0.063500
     12 C14         -2.7230    -0.0970    -0.9830 ca         1 H1P      -0.155000
     13 C1           0.7780     1.2220    -0.1470 cp         1 H1P      -0.023000
     14 C2           1.7750     0.2060    -0.2380 ca         1 H1P      -0.028000
     15 C3           3.1410     0.5040    -0.3640 ca         1 H1P      -0.117000
     16 C            1.2340     2.5640    -0.1370 ca         1 H1P      -0.092000
     17 N            1.2810    -1.1400    -0.2150 n          1 H1P      -0.168600
     18 C9           1.4960    -2.0840    -1.2230 c2         1 H1P      -0.071400
     19 H1           4.6130     2.0900    -0.4490 ha         1 H1P       0.118000
     20 H2           2.9260     3.9120    -0.2380 ha         1 H1P       0.118000
     21 H3           0.6570    -3.8890     1.1720 hc         1 H1P       0.090200
     22 H4          -0.7790    -3.2710     0.3510 hc         1 H1P       0.090200
     23 H5           1.0350    -4.1630    -1.5770 ha         1 H1P       0.209000
     24 H6          -0.7670    -0.2680    -1.8790 ha         1 H1P       0.121000
     25 H7          -3.4500     1.6810     1.8420 ha         1 H1P       0.131500
     26 H8          -1.0040     2.1220     1.7220 ha         1 H1P       0.121000
     27 H9          -3.2090    -0.7120    -1.7360 ha         1 H1P       0.131500
     28 H10          3.8740    -0.2950    -0.4460 ha         1 H1P       0.122000
     29 H11          0.5130     3.3740    -0.0650 ha         1 H1P       0.120000
     30 H12          2.0440    -1.7790    -2.1180 h4         1 H1P       0.214000
     31 O            0.4790    -1.2230     2.0020 o          1 H1P      -0.510000
@<TRIPOS>BOND
     1     1     2 ar  
     2     1    15 ar  
     3     1    19 1   
     4     2    16 ar  
     5     2    20 1   
     6     3     4 1   
     7     3    17 1   
     8     3    31 2   
     9     4     5 1   
    10     4    21 1   
    11     4    22 1   
    12     5    18 2   
    13     5    23 1   
    14     6     8 ar  
    15     6    11 ar  
    16     6    13 1   
    17     7     9 1   
    18     7    10 ar  
    19     7    12 ar  
    20     8    12 ar  
    21     8    24 1   
    22    10    11 ar  
    23    10    25 1   
    24    11    26 1   
    25    12    27 1   
    26    13    14 ar  
    27    13    16 ar  
    28    14    15 ar  
    29    14    17 1   
    30    15    28 1   
    31    16    29 1   
    32    17    18 1   
    33    18    30 1   
@<TRIPOS>SUBSTRUCTURE
     1 H1P         1 TEMP              0 ****  ****    0 ROOT
