@<TRIPOS>MOLECULE
H1R
   57    60     1     0     0
SMALL
No Charge or Current Charge


@<TRIPOS>ATOM
      1 C1         -44.7980    -2.2220   -26.9270 c3         1 H1R       0.143900
      2 C3         -44.4640    -4.0770   -28.5310 ca         1 H1R       0.148100
      3 C4         -44.7550    -5.0550   -27.5460 ca         1 H1R      -0.186000
      4 C5         -44.7130    -6.4110   -27.8950 ca         1 H1R      -0.040300
      5 C6         -44.3920    -6.7960   -29.1810 ca         1 H1R      -0.195600
      6 C7         -44.1180    -5.8560   -30.1880 ca         1 H1R      -0.102000
      7 C8         -44.1470    -4.4780   -29.8580 ca         1 H1R       0.092100
      8 C10        -43.5490    -3.8080   -32.1670 c3         1 H1R       0.143900
      9 C11        -44.4370    -8.2720   -29.3180 c          1 H1R       0.591700
     10 C13        -44.3870    -8.7570   -27.8380 c5         1 H1R      -0.167700
     11 C14        -44.9690   -10.1910   -27.6350 c3         1 H1R      -0.084400
     12 C15        -44.7040   -10.9410   -26.2870 c6         1 H1R       0.217000
     13 C17        -45.3060   -10.2160   -25.0450 c6         1 H1R      -0.099400
     14 C18        -45.6070   -11.1570   -23.8470 c6         1 H1R       0.179300
     15 C21        -43.6980   -14.2050   -22.5030 ca         1 H1R      -0.063300
     16 C22        -44.0840   -15.5530   -22.3620 ca         1 H1R      -0.129000
     17 C23        -43.1140   -16.5710   -22.3030 ca         1 H1R      -0.088000
     18 C24        -41.7500   -16.2440   -22.3860 ca         1 H1R      -0.152000
     19 C25        -41.3620   -14.9030   -22.5280 ca         1 H1R       0.166000
     20 C27        -42.3270   -13.8860   -22.5860 ca         1 H1R      -0.128000
     21 C28        -44.9360   -13.2030   -25.0440 c6         1 H1R       0.179300
     22 C29        -45.2050   -12.4070   -26.3510 c6         1 H1R      -0.099400
     23 C30        -45.0300    -7.5860   -26.9950 c5         1 H1R      -0.028100
     24 F16        -43.3000   -10.9800   -26.1400 f          1 H1R      -0.262000
     25 F26        -40.0500   -14.5890   -22.6110 f          1 H1R      -0.181000
     26 N19        -44.7160   -12.3400   -23.8460 n3         1 H1R      -0.728600
     27 O2         -44.4890    -2.7230   -28.2390 os         1 H1R      -0.315100
     28 O9         -43.8780    -3.4980   -30.8010 os         1 H1R      -0.321100
     29 O12        -44.7630    -8.8680   -30.3370 o          1 H1R      -0.518100
     30 H1         -44.7580    -1.1260   -26.9200 h1         1 H1R       0.043367
     31 H2         -45.8080    -2.5260   -26.6210 h1         1 H1R       0.043367
     32 H3         -44.0780    -2.5940   -26.1870 h1         1 H1R       0.043367
     33 H4         -45.0140    -4.7820   -26.5270 ha         1 H1R       0.124000
     34 H5         -43.8870    -6.2020   -31.1920 ha         1 H1R       0.138000
     35 H6         -43.3740    -2.8860   -32.7340 h1         1 H1R       0.042033
     36 H7         -42.6380    -4.4180   -32.2200 h1         1 H1R       0.042033
     37 H8         -44.3690    -4.3540   -32.6510 h1         1 H1R       0.042033
     38 H9         -43.3230    -8.7600   -27.5770 hc         1 H1R       0.092700
     39 H10        -46.0510   -10.1580   -27.8150 hc         1 H1R       0.063200
     40 H11        -44.5720   -10.8240   -28.4390 hc         1 H1R       0.063200
     41 H12        -44.6100    -9.4360   -24.7120 hc         1 H1R       0.053950
     42 H13        -46.2370    -9.7020   -25.3170 hc         1 H1R       0.053950
     43 H14        -45.5010   -10.5840   -22.9140 h1         1 H1R       0.036200
     44 H15        -46.6560   -11.4860   -23.9020 h1         1 H1R       0.036200
     45 H16        -44.5670   -12.4130   -21.7320 h1         1 H1R       0.038700
     46 H17        -45.7440   -13.5320   -22.4200 h1         1 H1R       0.038700
     47 H18        -45.1390   -15.8150   -22.3000 ha         1 H1R       0.113000
     48 H19        -43.4210   -17.6090   -22.1940 ha         1 H1R       0.115000
     49 H20        -40.9950   -17.0250   -22.3420 ha         1 H1R       0.130000
     50 H21        -42.0150   -12.8520   -22.7030 ha         1 H1R       0.154000
     51 H22        -45.7800   -13.8880   -24.8770 h1         1 H1R       0.036200
     52 H23        -44.0480   -13.8330   -25.1990 h1         1 H1R       0.036200
     53 H24        -46.2870   -12.4020   -26.5420 hc         1 H1R       0.053950
     54 H25        -44.7500   -12.9350   -27.1990 hc         1 H1R       0.053950
     55 H26        -44.5850    -7.4840   -26.0000 hc         1 H1R       0.059200
     56 H27        -46.1130    -7.7090   -26.8730 hc         1 H1R       0.059200
     57 C20        -44.7470   -13.0970   -22.5730 c3         1 H1R       0.223100
@<TRIPOS>BOND
     1     1    27 1   
     2     1    30 1   
     3     1    31 1   
     4     1    32 1   
     5     2     3 ar  
     6     2     7 ar  
     7     2    27 1   
     8     3     4 ar  
     9     3    33 1   
    10     4     5 ar  
    11     4    23 1   
    12     5     6 ar  
    13     5     9 1   
    14     6     7 ar  
    15     6    34 1   
    16     7    28 1   
    17     8    28 1   
    18     8    35 1   
    19     8    36 1   
    20     8    37 1   
    21     9    10 1   
    22     9    29 2   
    23    10    11 1   
    24    10    23 1   
    25    10    38 1   
    26    11    12 1   
    27    11    39 1   
    28    11    40 1   
    29    12    13 1   
    30    12    22 1   
    31    12    24 1   
    32    13    14 1   
    33    13    41 1   
    34    13    42 1   
    35    14    26 1   
    36    14    43 1   
    37    14    44 1   
    38    15    16 ar  
    39    15    20 ar  
    40    15    57 1   
    41    16    17 ar  
    42    16    47 1   
    43    17    18 ar  
    44    17    48 1   
    45    18    19 ar  
    46    18    49 1   
    47    19    20 ar  
    48    19    25 1   
    49    20    50 1   
    50    21    22 1   
    51    21    26 1   
    52    21    51 1   
    53    21    52 1   
    54    22    53 1   
    55    22    54 1   
    56    23    55 1   
    57    23    56 1   
    58    26    57 1   
    59    45    57 1   
    60    46    57 1   
@<TRIPOS>SUBSTRUCTURE
     1 H1R         1 TEMP              0 ****  ****    0 ROOT
