@<TRIPOS>MOLECULE
H1R
   57    60     1     0     0
SMALL
abcg2


@<TRIPOS>ATOM
      1 C1         -45.2020    -2.3060   -27.1810 c3         1 H1R       0.143900
      2 C3         -44.5930    -4.1410   -28.5430 ca         1 H1R       0.148100
      3 C4         -44.7610    -5.0530   -27.5110 ca         1 H1R      -0.186000
      4 C5         -44.5230    -6.4010   -27.7570 ca         1 H1R      -0.040300
      5 C6         -44.1250    -6.8130   -29.0110 ca         1 H1R      -0.195600
      6 C7         -43.9550    -5.9140   -30.0690 ca         1 H1R      -0.102000
      7 C8         -44.1850    -4.5760   -29.8380 ca         1 H1R       0.092100
      8 C10        -43.6490    -3.9590   -32.0530 c3         1 H1R       0.143900
      9 C11        -43.9450    -8.2620   -29.0220 c          1 H1R       0.591700
     10 C13        -44.1090    -8.7610   -27.5850 c5         1 H1R      -0.167700
     11 C14        -44.8930   -10.0680   -27.5120 c3         1 H1R      -0.084400
     12 C15        -44.6850   -10.8910   -26.2460 c6         1 H1R       0.217000
     13 C17        -45.0840   -10.1690   -24.9580 c6         1 H1R      -0.099400
     14 C18        -45.5400   -11.1380   -23.8650 c6         1 H1R       0.179300
     15 C21        -43.7920   -14.2420   -22.6910 ca         1 H1R      -0.063300
     16 C22        -44.0730   -15.4870   -22.1360 ca         1 H1R      -0.129000
     17 C23        -43.0820   -16.4530   -22.0290 ca         1 H1R      -0.088000
     18 C24        -41.7960   -16.2010   -22.4850 ca         1 H1R      -0.152000
     19 C25        -41.5410   -14.9630   -23.0430 ca         1 H1R       0.166000
     20 C27        -42.5050   -13.9810   -23.1530 ca         1 H1R      -0.128000
     21 C28        -45.1000   -13.1280   -25.1370 c6         1 H1R       0.179300
     22 C29        -45.4200   -12.2170   -26.3250 c6         1 H1R      -0.099400
     23 C30        -44.6780    -7.5570   -26.8140 c5         1 H1R      -0.028100
     24 F16        -43.3060   -11.1850   -26.1750 f          1 H1R      -0.262000
     25 F26        -40.3020   -14.7030   -23.4990 f          1 H1R      -0.181000
     26 N19        -44.7760   -12.3660   -23.9390 n3         1 H1R      -0.728600
     27 O2         -44.7880    -2.8250   -28.4310 os         1 H1R      -0.315100
     28 O9         -44.0590    -3.5970   -30.7510 os         1 H1R      -0.321100
     29 O12        -43.6900    -8.9530   -29.9860 o          1 H1R      -0.518100
     30 H1         -45.3010    -1.2310   -27.3130 h1         1 H1R       0.043367
     31 H2         -46.1670    -2.7150   -26.8710 h1         1 H1R       0.043367
     32 H3         -44.4650    -2.5000   -26.3980 h1         1 H1R       0.043367
     33 H4         -45.0750    -4.7290   -26.5270 ha         1 H1R       0.124000
     34 H5         -43.6430    -6.2780   -31.0390 ha         1 H1R       0.138000
     35 H6         -43.6020    -3.0390   -32.6300 h1         1 H1R       0.042033
     36 H7         -42.6610    -4.4280   -32.0530 h1         1 H1R       0.042033
     37 H8         -44.3610    -4.6390   -32.5290 h1         1 H1R       0.042033
     38 H9         -43.0840    -8.9430   -27.2380 hc         1 H1R       0.092700
     39 H10        -45.9620    -9.8630   -27.6210 hc         1 H1R       0.063200
     40 H11        -44.6090   -10.6930   -28.3630 hc         1 H1R       0.063200
     41 H12        -44.2370    -9.5750   -24.6080 hc         1 H1R       0.053950
     42 H13        -45.8950    -9.4690   -25.1620 hc         1 H1R       0.053950
     43 H14        -45.3800   -10.6810   -22.8870 h1         1 H1R       0.036200
     44 H15        -46.6240   -11.3180   -23.9460 h1         1 H1R       0.036200
     45 H16        -44.7230   -12.5150   -21.8810 h1         1 H1R       0.038700
     46 H17        -45.8430   -13.6470   -22.6230 h1         1 H1R       0.038700
     47 H18        -45.0750   -15.7040   -21.7850 ha         1 H1R       0.113000
     48 H19        -43.3120   -17.4170   -21.5930 ha         1 H1R       0.115000
     49 H20        -41.0160   -16.9480   -22.4140 ha         1 H1R       0.130000
     50 H21        -42.2670   -13.0260   -23.6060 ha         1 H1R       0.154000
     51 H22        -45.9630   -13.7910   -24.9640 h1         1 H1R       0.036200
     52 H23        -44.2590   -13.7790   -25.3830 h1         1 H1R       0.036200
     53 H24        -46.4910   -11.9970   -26.3570 hc         1 H1R       0.053950
     54 H25        -45.1860   -12.7330   -27.2580 hc         1 H1R       0.053950
     55 H26        -44.1650    -7.3840   -25.8660 hc         1 H1R       0.059200
     56 H27        -45.7350    -7.7020   -26.5740 hc         1 H1R       0.059200
     57 C20        -44.8550   -13.1730   -22.7460 c3         1 H1R       0.223100
@<TRIPOS>BOND
     1     1    27 1   
     2     1    30 1   
     3     1    31 1   
     4     1    32 1   
     5     2     3 ar  
     6     2     7 ar  
     7     2    27 1   
     8     3     4 ar  
     9     3    33 1   
    10     4     5 ar  
    11     4    23 1   
    12     5     6 ar  
    13     5     9 1   
    14     6     7 ar  
    15     6    34 1   
    16     7    28 1   
    17     8    28 1   
    18     8    35 1   
    19     8    36 1   
    20     8    37 1   
    21     9    10 1   
    22     9    29 2   
    23    10    11 1   
    24    10    23 1   
    25    10    38 1   
    26    11    12 1   
    27    11    39 1   
    28    11    40 1   
    29    12    13 1   
    30    12    22 1   
    31    12    24 1   
    32    13    14 1   
    33    13    41 1   
    34    13    42 1   
    35    14    26 1   
    36    14    43 1   
    37    14    44 1   
    38    15    16 ar  
    39    15    20 ar  
    40    15    57 1   
    41    16    17 ar  
    42    16    47 1   
    43    17    18 ar  
    44    17    48 1   
    45    18    19 ar  
    46    18    49 1   
    47    19    20 ar  
    48    19    25 1   
    49    20    50 1   
    50    21    22 1   
    51    21    26 1   
    52    21    51 1   
    53    21    52 1   
    54    22    53 1   
    55    22    54 1   
    56    23    55 1   
    57    23    56 1   
    58    26    57 1   
    59    45    57 1   
    60    46    57 1   
@<TRIPOS>SUBSTRUCTURE
     1 H1R         1 TEMP              0 ****  ****    0 ROOT
