@<TRIPOS>MOLECULE
H1U
   61    64     1     0     0
SMALL
abcg2


@<TRIPOS>ATOM
      1 C1           9.8370    -5.4170   -32.3940 ca         1 H1U      -0.109000
      2 C2          15.5170    -2.3130   -23.6320 ca         1 H1U      -0.143000
      3 C3           9.2520    -5.3430   -31.1390 ca         1 H1U      -0.115500
      4 C4          10.9630    -4.6490   -32.6700 ca         1 H1U      -0.115500
      5 C5          16.1880    -1.1930   -23.1140 ca         1 H1U      -0.094000
      6 C6          15.2710    -2.4310   -24.9870 ca         1 H1U      -0.063000
      7 C7           9.7890    -4.5070   -30.1670 ca         1 H1U      -0.097500
      8 C8          11.4960    -3.8150   -31.6990 ca         1 H1U      -0.097500
      9 C9          16.6220    -0.1720   -23.9400 ca         1 H1U      -0.128000
     10 C10         15.7000    -1.4150   -25.8480 ca         1 H1U      -0.096800
     11 C11         10.9120    -3.7300   -30.4350 ca         1 H1U      -0.090300
     12 C12         15.6340    -1.2220   -27.2670 cc         1 H1U      -0.143400
     13 C13         16.3670    -0.2940   -25.3050 ca         1 H1U      -0.044200
     14 C14         16.2370    -0.0170   -27.5190 cd         1 H1U      -0.057300
     15 C15         19.5090     3.2180   -32.5300 c3         1 H1U      -0.071400
     16 C16         19.9030     4.4430   -31.7030 c3         1 H1U      -0.071400
     17 C17         18.0400     2.8050   -32.4190 c3         1 H1U      -0.065400
     18 C18         19.2340     4.5480   -30.3330 c3         1 H1U      -0.065400
     19 C19         17.7540     1.8670   -31.2470 c3         1 H1U      -0.086400
     20 C20         19.1200     3.2400   -29.5490 c3         1 H1U      -0.086400
     21 C21         17.8390     2.4560   -29.8350 c3         1 H1U       0.178500
     22 C22         15.0010    -2.1500   -28.2510 c3         1 H1U      -0.002200
     23 C23         11.4720    -2.8000   -29.3900 c3         1 H1U       0.207100
     24 C24         16.4240     0.7260   -28.8000 c3         1 H1U       0.217000
     25 C25         13.4840    -1.9950   -28.3200 c3         1 H1U       0.157800
     26 N26         16.6690     0.5350   -26.3420 na         1 H1U      -0.204700
     27 N27         17.6880     1.4400   -28.7960 n7         1 H1U      -0.890400
     28 N28         12.9120    -2.9200   -29.2790 n7         1 H1U      -0.867400
     29 H1           9.4230    -6.0690   -33.1520 ha         1 H1U       0.111000
     30 H2          15.1900    -3.0930   -22.9570 ha         1 H1U       0.109000
     31 H3           8.3780    -5.9410   -30.9100 ha         1 H1U       0.111000
     32 H4          11.4280    -4.7010   -33.6470 ha         1 H1U       0.111000
     33 H5          16.3680    -1.1270   -22.0490 ha         1 H1U       0.108000
     34 H6          14.7540    -3.3020   -25.3750 ha         1 H1U       0.110000
     35 H7           9.3300    -4.4600   -29.1870 ha         1 H1U       0.116500
     36 H8          12.3760    -3.2240   -31.9210 ha         1 H1U       0.116500
     37 H9          17.1400     0.6910   -23.5400 ha         1 H1U       0.113000
     38 H11         19.7580     3.4160   -33.5750 hc         1 H1U       0.036700
     39 H12         20.9890     4.4410   -31.5780 hc         1 H1U       0.036700
     40 H13         19.6700     5.3510   -32.2660 hc         1 H1U       0.036700
     41 H14         17.3940     3.6880   -32.3730 hc         1 H1U       0.038450
     42 H15         17.7540     2.2800   -33.3330 hc         1 H1U       0.038450
     43 H16         19.7910     5.2770   -29.7400 hc         1 H1U       0.038450
     44 H17         18.2320     4.9730   -30.4450 hc         1 H1U       0.038450
     45 H18         16.7550     1.4420   -31.3830 hc         1 H1U       0.040950
     46 H19         18.4510     1.0220   -31.3060 hc         1 H1U       0.040950
     47 H20         19.9970     2.6050   -29.7240 hc         1 H1U       0.040950
     48 H21         19.1180     3.4640   -28.4800 hc         1 H1U       0.040950
     49 H22         17.0020     3.1550   -29.7070 h1         1 H1U       0.054700
     50 H23         15.2400    -3.1840   -27.9820 hc         1 H1U       0.047200
     51 H24         15.4150    -1.9920   -29.2510 hc         1 H1U       0.047200
     52 H25         11.2450    -1.7660   -29.6740 h1         1 H1U       0.035700
     53 H26         10.9490    -2.9710   -28.4370 h1         1 H1U       0.035700
     54 H27         15.6250     1.4680   -28.9070 h1         1 H1U       0.049200
     55 H28         16.2940     0.0240   -29.6340 h1         1 H1U       0.049200
     56 H29         13.2430    -0.9760   -28.6390 h1         1 H1U       0.033200
     57 H30         13.0590    -2.1110   -27.3110 h1         1 H1U       0.033200
     58 H31         17.2090     1.3840   -26.2960 hn         1 H1U       0.364000
     59 H32         18.4490     0.7730   -28.8710 hn         1 H1U       0.415000
     60 H34         13.1400    -3.8680   -29.0000 hn         1 H1U       0.410000
     61 H10         20.1270     2.3620   -32.2390 hc         1 H1U       0.036700
@<TRIPOS>BOND
     1     1     3 ar  
     2     1     4 ar  
     3     1    29 1   
     4     2     5 ar  
     5     2     6 ar  
     6     2    30 1   
     7     3     7 ar  
     8     3    31 1   
     9     4     8 ar  
    10     4    32 1   
    11     5     9 ar  
    12     5    33 1   
    13     6    10 ar  
    14     6    34 1   
    15     7    11 ar  
    16     7    35 1   
    17     8    11 ar  
    18     8    36 1   
    19     9    13 ar  
    20     9    37 1   
    21    10    12 1   
    22    10    13 ar  
    23    11    23 1   
    24    12    14 2   
    25    12    22 1   
    26    13    26 1   
    27    14    24 1   
    28    14    26 1   
    29    15    16 1   
    30    15    17 1   
    31    15    38 1   
    32    15    61 1   
    33    16    18 1   
    34    16    39 1   
    35    16    40 1   
    36    17    19 1   
    37    17    41 1   
    38    17    42 1   
    39    18    20 1   
    40    18    43 1   
    41    18    44 1   
    42    19    21 1   
    43    19    45 1   
    44    19    46 1   
    45    20    21 1   
    46    20    47 1   
    47    20    48 1   
    48    21    27 1   
    49    21    49 1   
    50    22    25 1   
    51    22    50 1   
    52    22    51 1   
    53    23    28 1   
    54    23    52 1   
    55    23    53 1   
    56    24    27 1   
    57    24    54 1   
    58    24    55 1   
    59    25    28 1   
    60    25    56 1   
    61    25    57 1   
    62    26    58 1   
    63    27    59 1   
    64    28    60 1   
@<TRIPOS>SUBSTRUCTURE
     1 H1U         1 TEMP              0 ****  ****    0 ROOT
