@<TRIPOS>MOLECULE
H1U
   61    64     1     0     0
SMALL
No Charge or Current Charge


@<TRIPOS>ATOM
      1 C1           9.6020    -5.4860   -32.2460 ca         1 H1U      -0.109000
      2 C2          15.3920    -2.4730   -23.7660 ca         1 H1U      -0.143000
      3 C3           9.7130    -5.8850   -30.9030 ca         1 H1U      -0.115500
      4 C4          10.0200    -4.2010   -32.6310 ca         1 H1U      -0.115500
      5 C5          16.1120    -1.4040   -23.1810 ca         1 H1U      -0.094000
      6 C6          15.1650    -2.5010   -25.1590 ca         1 H1U      -0.063000
      7 C7          10.2410    -5.0010   -29.9460 ca         1 H1U      -0.097500
      8 C8          10.5480    -3.3160   -31.6750 ca         1 H1U      -0.097500
      9 C9          16.6110    -0.3580   -23.9860 ca         1 H1U      -0.128000
     10 C10         15.6720    -1.4440   -25.9290 ca         1 H1U      -0.096800
     11 C11         10.6610    -3.7100   -30.3260 ca         1 H1U      -0.090300
     12 C12         15.5990    -1.2070   -27.3450 cc         1 H1U      -0.143400
     13 C13         16.3690    -0.4130   -25.3660 ca         1 H1U      -0.044200
     14 C14         16.2820    -0.0090   -27.5660 cd         1 H1U      -0.057300
     15 C15         20.0840     3.2410   -32.3360 c3         1 H1U      -0.071400
     16 C16         19.9680     4.6450   -31.6980 c3         1 H1U      -0.071400
     17 C17         18.7650     2.4480   -32.4660 c3         1 H1U      -0.065400
     18 C18         18.9580     4.8090   -30.5380 c3         1 H1U      -0.065400
     19 C19         18.3810     1.6610   -31.1890 c3         1 H1U      -0.086400
     20 C20         18.8720     3.6300   -29.5410 c3         1 H1U      -0.086400
     21 C21         17.8980     2.5060   -29.9790 c3         1 H1U       0.178500
     22 C22         14.8900    -2.0750   -28.3560 c3         1 H1U      -0.002200
     23 C23         11.2280    -2.7480   -29.2900 c3         1 H1U       0.207100
     24 C24         16.4920     0.7280   -28.8700 c3         1 H1U       0.217000
     25 C25         13.3540    -1.9500   -28.2730 c3         1 H1U       0.157800
     26 N26         16.7610     0.4930   -26.3330 na         1 H1U      -0.204700
     27 N27         17.6660     1.6300   -28.8110 n7         1 H1U      -0.890400
     28 N28         12.6990    -2.8120   -29.2770 n7         1 H1U      -0.867400
     29 H1           9.1940    -6.1710   -32.9860 ha         1 H1U       0.111000
     30 H2          15.0120    -3.2760   -23.1400 ha         1 H1U       0.109000
     31 H3           9.3900    -6.8800   -30.6030 ha         1 H1U       0.111000
     32 H4           9.9360    -3.8910   -33.6710 ha         1 H1U       0.111000
     33 H5          16.2830    -1.3890   -22.1070 ha         1 H1U       0.108000
     34 H6          14.6140    -3.3190   -25.6170 ha         1 H1U       0.110000
     35 H7          10.3230    -5.3180   -28.9080 ha         1 H1U       0.116500
     36 H8          10.8720    -2.3230   -31.9800 ha         1 H1U       0.116500
     37 H9          17.1660     0.4680   -23.5470 ha         1 H1U       0.113000
     38 H11         20.5220     3.3600   -33.3350 hc         1 H1U       0.036700
     39 H12         20.9640     4.9390   -31.3430 hc         1 H1U       0.036700
     40 H13         19.7030     5.3670   -32.4810 hc         1 H1U       0.036700
     41 H14         17.9450     3.1130   -32.7670 hc         1 H1U       0.038450
     42 H15         18.8870     1.7220   -33.2790 hc         1 H1U       0.038450
     43 H16         19.2290     5.7170   -29.9850 hc         1 H1U       0.038450
     44 H17         17.9610     5.0010   -30.9530 hc         1 H1U       0.038450
     45 H18         17.5840     0.9630   -31.4680 hc         1 H1U       0.040950
     46 H19         19.2350     1.0430   -30.8840 hc         1 H1U       0.040950
     47 H20         19.8720     3.2210   -29.3480 hc         1 H1U       0.040950
     48 H21         18.5160     4.0370   -28.5860 hc         1 H1U       0.040950
     49 H22         16.9510     2.9900   -30.2590 h1         1 H1U       0.054700
     50 H23         15.1750    -3.1220   -28.1960 hc         1 H1U       0.047200
     51 H24         15.2150    -1.8190   -29.3710 hc         1 H1U       0.047200
     52 H25         10.8900    -1.7280   -29.5230 h1         1 H1U       0.035700
     53 H26         10.8240    -3.0070   -28.3010 h1         1 H1U       0.035700
     54 H27         15.5800     1.3000   -29.0900 h1         1 H1U       0.049200
     55 H28         16.6160    -0.0130   -29.6710 h1         1 H1U       0.049200
     56 H29         13.0780    -0.8990   -28.4350 h1         1 H1U       0.033200
     57 H30         13.0270    -2.2260   -27.2610 h1         1 H1U       0.033200
     58 H31         17.2860     1.3510   -26.2040 hn         1 H1U       0.364000
     59 H32         18.5050     1.0590   -28.6630 hn         1 H1U       0.415000
     60 H34         12.9650    -3.7850   -29.0890 hn         1 H1U       0.410000
     61 H10         20.8060     2.6440   -31.7650 hc         1 H1U       0.036700
@<TRIPOS>BOND
     1     1     3 ar  
     2     1     4 ar  
     3     1    29 1   
     4     2     5 ar  
     5     2     6 ar  
     6     2    30 1   
     7     3     7 ar  
     8     3    31 1   
     9     4     8 ar  
    10     4    32 1   
    11     5     9 ar  
    12     5    33 1   
    13     6    10 ar  
    14     6    34 1   
    15     7    11 ar  
    16     7    35 1   
    17     8    11 ar  
    18     8    36 1   
    19     9    13 ar  
    20     9    37 1   
    21    10    12 1   
    22    10    13 ar  
    23    11    23 1   
    24    12    14 2   
    25    12    22 1   
    26    13    26 1   
    27    14    24 1   
    28    14    26 1   
    29    15    16 1   
    30    15    17 1   
    31    15    38 1   
    32    15    61 1   
    33    16    18 1   
    34    16    39 1   
    35    16    40 1   
    36    17    19 1   
    37    17    41 1   
    38    17    42 1   
    39    18    20 1   
    40    18    43 1   
    41    18    44 1   
    42    19    21 1   
    43    19    45 1   
    44    19    46 1   
    45    20    21 1   
    46    20    47 1   
    47    20    48 1   
    48    21    27 1   
    49    21    49 1   
    50    22    25 1   
    51    22    50 1   
    52    22    51 1   
    53    23    28 1   
    54    23    52 1   
    55    23    53 1   
    56    24    27 1   
    57    24    54 1   
    58    24    55 1   
    59    25    28 1   
    60    25    56 1   
    61    25    57 1   
    62    26    58 1   
    63    27    59 1   
    64    28    60 1   
@<TRIPOS>SUBSTRUCTURE
     1 H1U         1 TEMP              0 ****  ****    0 ROOT
