@<TRIPOS>MOLECULE
H1V
  108   115     1     0     0
SMALL
No Charge or Current Charge


@<TRIPOS>ATOM
      1 C1         -31.5720    14.0400    -7.2290 cc         1 H1V      -0.199800
      2 N          -33.6270    11.4210    -5.3010 na         1 H1V      -0.268300
      3 C          -30.9060    14.8120    -8.3400 c3         1 H1V      -0.021800
      4 O          -30.0730    11.0810    -0.7410 o          1 H1V      -0.607100
      5 C10        -31.4760     9.9770    -2.3880 c3         1 H1V      -0.134900
      6 C11        -30.1580    10.2970    -1.6770 c          1 H1V       0.605100
      7 C12        -27.7030     9.7250    -1.6110 c3         1 H1V       0.102000
      8 C13        -26.8580     8.4580    -1.8630 c3         1 H1V       0.134100
      9 C14        -26.1060     7.0170    -3.6620 c3         1 H1V       0.160600
     10 C15        -26.1990     6.8400    -5.1970 c3         1 H1V       0.160600
     11 C16        -25.4260     7.8140    -7.2780 c3         1 H1V       0.134100
     12 C17        -24.5330     8.9500    -7.8300 c3         1 H1V       0.102000
     13 C18        -22.5300     9.6030    -6.4310 c          1 H1V       0.605100
     14 C19        -21.0910     9.2190    -6.0910 c3         1 H1V      -0.134900
     15 C2         -31.4610    14.2590    -5.8660 cd         1 H1V      -0.060300
     16 C20        -20.0830    10.2620    -6.6330 c3         1 H1V       0.103700
     17 C21        -19.3130    10.9300    -8.8330 ce         1 H1V       0.549500
     18 C22        -18.5630    12.0670    -8.2720 cc         1 H1V      -0.206900
     19 C23        -17.6740    12.0340    -7.2260 cd         1 H1V      -0.116700
     20 C24        -17.8360    14.3060    -8.1260 cd         1 H1V      -0.199800
     21 C25        -17.6820    15.7790    -8.4100 c3         1 H1V      -0.021800
     22 C26        -18.6600    13.4060    -8.7770 cc         1 H1V      -0.060300
     23 C27        -19.5890    13.7480    -9.9190 c3         1 H1V      -0.032300
     24 C28        -16.5220    10.4430    -5.6890 cc         1 H1V       0.416300
     25 C29        -15.1320    11.0150    -5.6840 c3         1 H1V      -0.128400
     26 C3         -30.6090    15.3510    -5.2600 c3         1 H1V      -0.032300
     27 C30        -18.6470    10.0410    -6.1570 cc         1 H1V       0.393300
     28 C31        -18.9290    10.4000   -10.1890 ca         1 H1V      -0.135400
     29 C32        -19.6610     9.3460   -10.7880 ca         1 H1V      -0.068000
     30 C33        -19.2900     8.8370   -12.0450 ca         1 H1V      -0.112000
     31 C34        -18.1780     9.3640   -12.7170 ca         1 H1V       0.134500
     32 C35        -17.4320    10.3960   -12.1320 ca         1 H1V      -0.112000
     33 C36        -17.7990    10.9090   -10.8750 ca         1 H1V      -0.068000
     34 C37        -32.3270    13.3720    -3.6000 cf         1 H1V       0.549500
     35 C38        -32.8890    14.5720    -2.9230 ca         1 H1V      -0.135400
     36 C39        -32.6860    14.7920    -1.5380 ca         1 H1V      -0.068000
     37 C4         -32.2400    13.3480    -5.0730 cd         1 H1V      -0.206900
     38 C40        -33.2460    15.9130    -0.9010 ca         1 H1V      -0.112000
     39 C41        -34.0260    16.8200    -1.6310 ca         1 H1V       0.134500
     40 C42        -34.2540    16.6070    -2.9980 ca         1 H1V      -0.112000
     41 C43        -33.6960    15.4870    -3.6400 ca         1 H1V      -0.068000
     42 C5         -32.8990    12.4640    -5.8950 cc         1 H1V      -0.116700
     43 C6         -34.4880    10.6330    -6.0300 cc         1 H1V       0.416300
     44 C7         -35.3970    11.0700    -7.1450 c3         1 H1V      -0.128400
     45 C8         -33.0040    10.6190    -4.3710 cc         1 H1V       0.393300
     46 C9         -31.8170    11.0140    -3.4910 c3         1 H1V       0.103700
     47 N1         -34.5210     9.4420    -5.4500 nd         1 H1V      -0.352000
     48 N2         -33.5840     9.4250    -4.4310 nd         1 H1V      -0.337000
     49 N3         -29.0670     9.5970    -2.1390 ns         1 H1V      -0.501900
     50 N4         -23.1280     8.8340    -7.4070 ns         1 H1V      -0.501900
     51 N5         -20.1690    10.2760    -8.1070 n2         1 H1V      -0.566900
     52 N6         -17.5950    10.8860    -6.4280 na         1 H1V      -0.268300
     53 N7         -16.8900     9.3500    -5.0390 nd         1 H1V      -0.352000
     54 N8         -18.2200     9.1070    -5.3160 nd         1 H1V      -0.337000
     55 N9         -32.0520    12.3320    -2.8690 n2         1 H1V      -0.566900
     56 O1         -26.8700     8.1780    -3.2750 os         1 H1V      -0.455000
     57 O2         -25.4120     7.8640    -5.8390 os         1 H1V      -0.455000
     58 O3         -23.1170    10.5080    -5.8540 o          1 H1V      -0.607100
     59 S          -32.6260    12.6790    -7.6110 ss         1 H1V       0.234500
     60 S1         -16.8940    13.5590    -6.8200 ss         1 H1V       0.234500
     61 Cl         -17.7150     8.7240   -14.2880 cl         1 H1V      -0.207500
     62 Cl1        -34.7270    18.2210    -0.8310 cl         1 H1V      -0.207500
     63 H1         -31.2930    14.5140    -9.3210 hc         1 H1V       0.052033
     64 H2         -31.0790    15.8890    -8.2260 hc         1 H1V       0.052033
     65 H3         -29.8240    14.6400    -8.3400 hc         1 H1V       0.052033
     66 H4         -32.2890     9.9570    -1.6530 hc         1 H1V       0.084450
     67 H5         -31.3820     8.9990    -2.8740 hc         1 H1V       0.084450
     68 H6         -27.2170    10.5860    -2.0900 h1         1 H1V       0.067950
     69 H7         -27.7430     9.9140    -0.5310 h1         1 H1V       0.067950
     70 H8         -27.2850     7.6190    -1.2990 h1         1 H1V       0.030450
     71 H9         -25.8330     8.6280    -1.5070 h1         1 H1V       0.030450
     72 H10        -26.5100     6.1180    -3.1780 h1         1 H1V       0.032950
     73 H11        -25.0530     7.1200    -3.3680 h1         1 H1V       0.032950
     74 H12        -27.2500     6.8950    -5.5100 h1         1 H1V       0.032950
     75 H13        -25.8160     5.8450    -5.4620 h1         1 H1V       0.032950
     76 H14        -26.4480     7.9450    -7.6580 h1         1 H1V       0.030450
     77 H15        -25.0470     6.8480    -7.6370 h1         1 H1V       0.030450
     78 H16        -24.5670     8.9240    -8.9270 h1         1 H1V       0.067950
     79 H17        -24.9420     9.9180    -7.5120 h1         1 H1V       0.067950
     80 H18        -21.0030     9.1860    -5.0000 hc         1 H1V       0.084450
     81 H19        -20.8460     8.2380    -6.5140 hc         1 H1V       0.084450
     82 H20        -20.3880    11.2430    -6.2420 h1         1 H1V       0.076700
     83 H21        -16.8600    16.2170    -7.8320 hc         1 H1V       0.052033
     84 H22        -17.4700    15.9550    -9.4720 hc         1 H1V       0.052033
     85 H23        -18.5970    16.3260    -8.1550 hc         1 H1V       0.052033
     86 H24        -19.1100    13.5490   -10.8850 hc         1 H1V       0.051533
     87 H25        -20.5160    13.1640    -9.8720 hc         1 H1V       0.051533
     88 H26        -19.8740    14.8060    -9.8990 hc         1 H1V       0.051533
     89 H27        -14.4100    10.2800    -5.3120 hc         1 H1V       0.065033
     90 H28        -14.8240    11.3030    -6.6960 hc         1 H1V       0.065033
     91 H29        -15.0780    11.8980    -5.0370 hc         1 H1V       0.065033
     92 H30        -31.1780    16.2820    -5.1630 hc         1 H1V       0.051533
     93 H31        -30.2460    15.0740    -4.2630 hc         1 H1V       0.051533
     94 H32        -29.7260    15.5600    -5.8750 hc         1 H1V       0.051533
     95 H33        -20.5290     8.9200   -10.2880 ha         1 H1V       0.131250
     96 H34        -19.8650     8.0330   -12.4970 ha         1 H1V       0.133000
     97 H35        -16.5650    10.7980   -12.6510 ha         1 H1V       0.133000
     98 H36        -17.1920    11.7010   -10.4410 ha         1 H1V       0.131250
     99 H37        -32.0850    14.1000    -0.9510 ha         1 H1V       0.131250
    100 H38        -33.0770    16.0760     0.1610 ha         1 H1V       0.133000
    101 H39        -34.8680    17.3060    -3.5600 ha         1 H1V       0.133000
    102 H40        -33.9000    15.3360    -4.6980 ha         1 H1V       0.131250
    103 H41        -36.3660    10.5650    -7.0730 hc         1 H1V       0.065033
    104 H42        -35.5800    12.1500    -7.1060 hc         1 H1V       0.065033
    105 H43        -34.9620    10.8240    -8.1200 hc         1 H1V       0.065033
    106 H44        -30.9460    11.0740    -4.1590 h1         1 H1V       0.076700
    107 H45        -29.2140     8.9610    -2.9140 hn         1 H1V       0.314500
    108 H46        -22.5550     8.1150    -7.8310 hn         1 H1V       0.314500
@<TRIPOS>BOND
     1     1     3 1   
     2     1    15 2   
     3     1    59 1   
     4     2    42 1   
     5     2    43 1   
     6     2    45 1   
     7     3    63 1   
     8     3    64 1   
     9     3    65 1   
    10     4     6 2   
    11     5     6 1   
    12     5    46 1   
    13     5    66 1   
    14     5    67 1   
    15     6    49 1   
    16     7     8 1   
    17     7    49 1   
    18     7    68 1   
    19     7    69 1   
    20     8    56 1   
    21     8    70 1   
    22     8    71 1   
    23     9    10 1   
    24     9    56 1   
    25     9    72 1   
    26     9    73 1   
    27    10    57 1   
    28    10    74 1   
    29    10    75 1   
    30    11    12 1   
    31    11    57 1   
    32    11    76 1   
    33    11    77 1   
    34    12    50 1   
    35    12    78 1   
    36    12    79 1   
    37    13    14 1   
    38    13    50 1   
    39    13    58 2   
    40    14    16 1   
    41    14    80 1   
    42    14    81 1   
    43    15    26 1   
    44    15    37 1   
    45    16    27 1   
    46    16    51 1   
    47    16    82 1   
    48    17    18 1   
    49    17    28 1   
    50    17    51 2   
    51    18    19 2   
    52    18    22 1   
    53    19    52 1   
    54    19    60 1   
    55    20    21 1   
    56    20    22 2   
    57    20    60 1   
    58    21    83 1   
    59    21    84 1   
    60    21    85 1   
    61    22    23 1   
    62    23    86 1   
    63    23    87 1   
    64    23    88 1   
    65    24    25 1   
    66    24    52 1   
    67    24    53 2   
    68    25    89 1   
    69    25    90 1   
    70    25    91 1   
    71    26    92 1   
    72    26    93 1   
    73    26    94 1   
    74    27    52 1   
    75    27    54 2   
    76    28    29 ar  
    77    28    33 ar  
    78    29    30 ar  
    79    29    95 1   
    80    30    31 ar  
    81    30    96 1   
    82    31    32 ar  
    83    31    61 1   
    84    32    33 ar  
    85    32    97 1   
    86    33    98 1   
    87    34    35 1   
    88    34    37 1   
    89    34    55 2   
    90    35    36 ar  
    91    35    41 ar  
    92    36    38 ar  
    93    36    99 1   
    94    37    42 2   
    95    38    39 ar  
    96    38   100 1   
    97    39    40 ar  
    98    39    62 1   
    99    40    41 ar  
   100    40   101 1   
   101    41   102 1   
   102    42    59 1   
   103    43    44 1   
   104    43    47 2   
   105    44   103 1   
   106    44   104 1   
   107    44   105 1   
   108    45    46 1   
   109    45    48 2   
   110    46    55 1   
   111    46   106 1   
   112    47    48 1   
   113    49   107 1   
   114    50   108 1   
   115    53    54 1   
@<TRIPOS>SUBSTRUCTURE
     1 H1V         1 TEMP              0 ****  ****    0 ROOT
