@<TRIPOS>MOLECULE
H1V
  108   115     1     0     0
SMALL
abcg2


@<TRIPOS>ATOM
      1 C1         -32.0290    14.0680    -7.4150 cc         1 H1V      -0.199800
      2 N          -33.7760    11.2930    -5.3950 na         1 H1V      -0.268300
      3 C          -31.5880    14.8750    -8.5940 c3         1 H1V      -0.021800
      4 O          -29.9710    10.3950    -0.9900 o          1 H1V      -0.607100
      5 C10        -31.4190     9.8090    -2.8230 c3         1 H1V      -0.134900
      6 C11        -30.0860    10.1890    -2.1990 c          1 H1V       0.605100
      7 C12        -27.6930    10.5840    -2.6500 c3         1 H1V       0.102000
      8 C13        -26.8730     9.3300    -2.4120 c3         1 H1V       0.134100
      9 C14        -26.0660     7.3980    -3.5150 c3         1 H1V       0.160600
     10 C15        -25.9970     6.7180    -4.8570 c3         1 H1V       0.160600
     11 C16        -25.0100     6.8640    -7.0000 c3         1 H1V       0.134100
     12 C17        -24.0740     7.7090    -7.8430 c3         1 H1V       0.102000
     13 C18        -22.1980     8.8480    -6.7050 c          1 H1V       0.605100
     14 C19        -20.8130     8.6570    -6.1100 c3         1 H1V      -0.134900
     15 C2         -31.6900    14.2380    -6.1000 cd         1 H1V      -0.060300
     16 C20        -19.8920     9.7830    -6.5540 c3         1 H1V       0.103700
     17 C21        -19.1950    10.7210    -8.6160 ce         1 H1V       0.549500
     18 C22        -18.7310    11.9560    -7.9490 cc         1 H1V      -0.206900
     19 C23        -17.9690    11.9250    -6.8000 cd         1 H1V      -0.116700
     20 C24        -18.3520    14.2330    -7.6110 cd         1 H1V      -0.199800
     21 C25        -18.3380    15.7200    -7.7720 c3         1 H1V      -0.021800
     22 C26        -18.9550    13.3000    -8.4100 cc         1 H1V      -0.060300
     23 C27        -19.7890    13.6660    -9.6030 c3         1 H1V      -0.032300
     24 C28        -16.5190    10.3850    -5.4120 cc         1 H1V       0.416300
     25 C29        -15.2770    11.1900    -5.3280 c3         1 H1V      -0.128400
     26 C3         -30.7260    15.2910    -5.6370 c3         1 H1V      -0.032300
     27 C30        -18.5510     9.7230    -5.9050 cc         1 H1V       0.393300
     28 C31        -19.0110    10.6170   -10.0860 ca         1 H1V      -0.135400
     29 C32        -19.9190     9.8910   -10.8600 ca         1 H1V      -0.068000
     30 C33        -19.7410     9.7610   -12.2290 ca         1 H1V      -0.112000
     31 C34        -18.6340    10.3570   -12.8240 ca         1 H1V       0.134500
     32 C35        -17.7130    11.0790   -12.0770 ca         1 H1V      -0.112000
     33 C36        -17.9120    11.2100   -10.7100 ca         1 H1V      -0.068000
     34 C37        -32.2250    13.2280    -3.7680 cf         1 H1V       0.549500
     35 C38        -32.3730    14.5090    -3.0310 ca         1 H1V      -0.135400
     36 C39        -31.6840    14.7210    -1.8350 ca         1 H1V      -0.068000
     37 C4         -32.3240    13.2720    -5.2420 cd         1 H1V      -0.206900
     38 C40        -31.8340    15.9060    -1.1300 ca         1 H1V      -0.112000
     39 C41        -32.6940    16.8800    -1.6250 ca         1 H1V       0.134500
     40 C42        -33.3990    16.6900    -2.8060 ca         1 H1V      -0.112000
     41 C43        -33.2260    15.5050    -3.5070 ca         1 H1V      -0.068000
     42 C5         -33.1120    12.3900    -5.9510 cc         1 H1V      -0.116700
     43 C6         -35.0050    10.7360    -5.6760 cc         1 H1V       0.416300
     44 C7         -35.9520    11.2360    -6.7010 c3         1 H1V      -0.128400
     45 C8         -33.2510    10.5210    -4.3790 cc         1 H1V       0.393300
     46 C9         -31.9290    10.8800    -3.7860 c3         1 H1V       0.103700
     47 N1         -35.1980     9.7100    -4.8860 nd         1 H1V      -0.352000
     48 N2         -34.0900     9.5780    -4.0610 nd         1 H1V      -0.337000
     49 N3         -29.0550    10.2920    -3.0610 ns         1 H1V      -0.501900
     50 N4         -22.7280     7.7640    -7.3000 ns         1 H1V      -0.501900
     51 N5         -19.6950     9.7110    -8.0070 n2         1 H1V      -0.566900
     52 N6         -17.6650    10.7690    -6.0760 na         1 H1V      -0.268300
     53 N7         -16.7070     9.2010    -4.8880 nd         1 H1V      -0.352000
     54 N8         -17.9910     8.7790    -5.2050 nd         1 H1V      -0.337000
     55 N9         -32.0790    12.1570    -3.0800 n2         1 H1V      -0.566900
     56 O1         -26.7700     8.6240    -3.6390 os         1 H1V      -0.455000
     57 O2         -25.1600     7.4660    -5.7260 os         1 H1V      -0.455000
     58 O3         -22.7760     9.9340    -6.6290 o          1 H1V      -0.607100
     59 S          -33.1060    12.7280    -7.6390 ss         1 H1V       0.234500
     60 S1         -17.5130    13.5030    -6.2810 ss         1 H1V       0.234500
     61 CL         -18.4010    10.1980   -14.5500 cl         1 H1V      -0.207500
     62 CL1        -32.8880    18.3780    -0.7430 cl         1 H1V      -0.207500
     63 H1         -31.9700    14.4610    -9.5270 hc         1 H1V       0.052033
     64 H2         -31.9370    15.9070    -8.5140 hc         1 H1V       0.052033
     65 H3         -30.4980    14.8990    -8.6580 hc         1 H1V       0.052033
     66 H4         -32.1340     9.6670    -2.0160 hc         1 H1V       0.084450
     67 H5         -31.3130     8.8660    -3.3630 hc         1 H1V       0.084450
     68 H6         -27.2210    11.1870    -3.4280 h1         1 H1V       0.067950
     69 H7         -27.7290    11.1700    -1.7340 h1         1 H1V       0.067950
     70 H8         -27.3560     8.7000    -1.6540 h1         1 H1V       0.030450
     71 H9         -25.8760     9.6050    -2.0460 h1         1 H1V       0.030450
     72 H10        -26.5810     6.7360    -2.8060 h1         1 H1V       0.032950
     73 H11        -25.0530     7.5810    -3.1350 h1         1 H1V       0.032950
     74 H12        -27.0030     6.6290    -5.2860 h1         1 H1V       0.032950
     75 H13        -25.5940     5.7060    -4.7220 h1         1 H1V       0.032950
     76 H14        -25.9810     6.7910    -7.5060 h1         1 H1V       0.030450
     77 H15        -24.6100     5.8470    -6.8890 h1         1 H1V       0.030450
     78 H16        -24.0390     7.2930    -8.8510 h1         1 H1V       0.067950
     79 H17        -24.4470     8.7300    -7.9060 h1         1 H1V       0.067950
     80 H18        -20.9190     8.6800    -5.0230 hc         1 H1V       0.084450
     81 H19        -20.3870     7.6940    -6.3870 hc         1 H1V       0.084450
     82 H20        -20.3500    10.7430    -6.2860 h1         1 H1V       0.076700
     83 H21        -17.8950    16.2120    -6.9070 hc         1 H1V       0.052033
     84 H22        -17.7670    16.0130    -8.6570 hc         1 H1V       0.052033
     85 H23        -19.3540    16.1010    -7.8940 hc         1 H1V       0.052033
     86 H24        -19.1840    13.7420   -10.5090 hc         1 H1V       0.051533
     87 H25        -20.5620    12.9220    -9.7880 hc         1 H1V       0.051533
     88 H26        -20.2740    14.6300    -9.4480 hc         1 H1V       0.051533
     89 H27        -14.4870    10.5710    -4.9080 hc         1 H1V       0.065033
     90 H28        -14.9710    11.5400    -6.3160 hc         1 H1V       0.065033
     91 H29        -15.4110    12.0640    -4.6880 hc         1 H1V       0.065033
     92 H30        -31.2380    16.2230    -5.3860 hc         1 H1V       0.051533
     93 H31        -30.1840    14.9670    -4.7500 hc         1 H1V       0.051533
     94 H32        -29.9990    15.5120    -6.4190 hc         1 H1V       0.051533
     95 H33        -20.7760     9.4350   -10.3840 ha         1 H1V       0.131250
     96 H34        -20.4510     9.2100   -12.8290 ha         1 H1V       0.133000
     97 H35        -16.8560    11.5310   -12.5550 ha         1 H1V       0.133000
     98 H36        -17.1970    11.7730   -10.1240 ha         1 H1V       0.131250
     99 H37        -31.0180    13.9540    -1.4630 ha         1 H1V       0.131250
    100 H38        -31.2880    16.0750    -0.2120 ha         1 H1V       0.133000
    101 H39        -34.0680    17.4560    -3.1720 ha         1 H1V       0.133000
    102 H40        -33.7700    15.3560    -4.4310 ha         1 H1V       0.131250
    103 H41        -36.9030    10.7220    -6.5790 hc         1 H1V       0.065033
    104 H42        -36.1080    12.3110    -6.5960 hc         1 H1V       0.065033
    105 H43        -35.5820    11.0470    -7.7110 hc         1 H1V       0.065033
    106 H44        -31.2240    10.9980    -4.6190 h1         1 H1V       0.076700
    107 H45        -29.1990    10.0160    -4.0190 hn         1 H1V       0.314500
    108 H46        -22.1830     6.9160    -7.3130 hn         1 H1V       0.314500
@<TRIPOS>BOND
     1     1     3 1   
     2     1    15 2   
     3     1    59 1   
     4     2    42 1   
     5     2    43 1   
     6     2    45 1   
     7     3    63 1   
     8     3    64 1   
     9     3    65 1   
    10     4     6 2   
    11     5     6 1   
    12     5    46 1   
    13     5    66 1   
    14     5    67 1   
    15     6    49 1   
    16     7     8 1   
    17     7    49 1   
    18     7    68 1   
    19     7    69 1   
    20     8    56 1   
    21     8    70 1   
    22     8    71 1   
    23     9    10 1   
    24     9    56 1   
    25     9    72 1   
    26     9    73 1   
    27    10    57 1   
    28    10    74 1   
    29    10    75 1   
    30    11    12 1   
    31    11    57 1   
    32    11    76 1   
    33    11    77 1   
    34    12    50 1   
    35    12    78 1   
    36    12    79 1   
    37    13    14 1   
    38    13    50 1   
    39    13    58 2   
    40    14    16 1   
    41    14    80 1   
    42    14    81 1   
    43    15    26 1   
    44    15    37 1   
    45    16    27 1   
    46    16    51 1   
    47    16    82 1   
    48    17    18 1   
    49    17    28 1   
    50    17    51 2   
    51    18    19 2   
    52    18    22 1   
    53    19    52 1   
    54    19    60 1   
    55    20    21 1   
    56    20    22 2   
    57    20    60 1   
    58    21    83 1   
    59    21    84 1   
    60    21    85 1   
    61    22    23 1   
    62    23    86 1   
    63    23    87 1   
    64    23    88 1   
    65    24    25 1   
    66    24    52 1   
    67    24    53 2   
    68    25    89 1   
    69    25    90 1   
    70    25    91 1   
    71    26    92 1   
    72    26    93 1   
    73    26    94 1   
    74    27    52 1   
    75    27    54 2   
    76    28    29 ar  
    77    28    33 ar  
    78    29    30 ar  
    79    29    95 1   
    80    30    31 ar  
    81    30    96 1   
    82    31    32 ar  
    83    31    61 1   
    84    32    33 ar  
    85    32    97 1   
    86    33    98 1   
    87    34    35 1   
    88    34    37 1   
    89    34    55 2   
    90    35    36 ar  
    91    35    41 ar  
    92    36    38 ar  
    93    36    99 1   
    94    37    42 2   
    95    38    39 ar  
    96    38   100 1   
    97    39    40 ar  
    98    39    62 1   
    99    40    41 ar  
   100    40   101 1   
   101    41   102 1   
   102    42    59 1   
   103    43    44 1   
   104    43    47 2   
   105    44   103 1   
   106    44   104 1   
   107    44   105 1   
   108    45    46 1   
   109    45    48 2   
   110    46    55 1   
   111    46   106 1   
   112    47    48 1   
   113    49   107 1   
   114    50   108 1   
   115    53    54 1   
@<TRIPOS>SUBSTRUCTURE
     1 H1V         1 TEMP              0 ****  ****    0 ROOT
