@<TRIPOS>MOLECULE
H1X
   44    45     1     0     0
SMALL
abcg2


@<TRIPOS>ATOM
      1 C1          -5.0580     6.6750   -12.4830 ca         1 H1X       0.328000
      2 C2          -3.7730     7.2150   -12.5700 ca         1 H1X      -0.192000
      3 C15         -5.6650     9.1850   -10.6290 ca         1 H1X      -0.278500
      4 C16         -6.2660     8.5810    -9.5160 ca         1 H1X       0.038700
      5 C17         -5.5980     8.7380    -8.3090 ca         1 H1X      -0.144000
      6 C18         -4.4000     9.4340    -8.2030 ca         1 H1X      -0.064000
      7 C19         -3.8060    10.0220    -9.3120 ca         1 H1X      -0.105300
      8 C20         -4.4760     9.8890   -10.5260 ca         1 H1X      -0.016000
      9 C21         -7.5500     7.8060    -9.5530 c3         1 H1X      -0.083800
     10 C25         -2.4770    10.7660    -9.2640 c3         1 H1X       0.005300
     11 C26         -2.6850    12.2120    -9.7290 c3         1 H1X      -0.082100
     12 C27         -1.4800    10.0660   -10.1990 c3         1 H1X      -0.082100
     13 C28         -1.8830    10.7920    -7.8570 c3         1 H1X      -0.082100
     14 C3          -2.6620     6.4110   -12.3790 ca         1 H1X      -0.096000
     15 C4          -2.8090     5.0550   -12.1230 ca         1 H1X      -0.171000
     16 C5          -4.0840     4.5160   -12.0640 ca         1 H1X      -0.059000
     17 C6          -5.2240     5.2980   -12.2350 ca         1 H1X      -0.189600
     18 C7          -6.5900     4.6310   -12.1590 c          1 H1X       0.721600
     19 N1          -6.2150     7.4420   -12.6530 nu         1 H1X      -0.951100
     20 O13         -7.7930     9.2880   -12.2330 o          1 H1X      -0.567000
     21 O14         -5.5430     9.8330   -13.1560 o          1 H1X      -0.567000
     22 O8          -6.6270     3.4170   -11.9440 o          1 H1X      -0.691500
     23 O9          -7.6040     5.3730   -12.3290 o          1 H1X      -0.691500
     24 S12         -6.3620     9.0250   -12.2610 sy         1 H1X       1.163600
     25 H1          -3.6260     8.2610   -12.8000 ha         1 H1X       0.114000
     26 H2          -6.0250     8.2930    -7.4180 ha         1 H1X       0.104000
     27 H3          -3.9360     9.5030    -7.2290 ha         1 H1X       0.100000
     28 H4          -4.0530    10.3350   -11.4160 ha         1 H1X       0.135000
     29 H5          -7.5250     6.9870   -10.2730 hc         1 H1X       0.067367
     30 H6          -7.7470     7.3730    -8.5750 hc         1 H1X       0.067367
     31 H7          -8.3950     8.4410    -9.8140 hc         1 H1X       0.067367
     32 H8          -3.3950    12.7340    -9.0840 hc         1 H1X       0.032922
     33 H9          -1.7410    12.7590    -9.6980 hc         1 H1X       0.032922
     34 H10         -3.0600    12.2640   -10.7520 hc         1 H1X       0.032922
     35 H11         -0.5130    10.5710   -10.1650 hc         1 H1X       0.032922
     36 H12         -1.3280     9.0260    -9.9050 hc         1 H1X       0.032922
     37 H13         -1.8170    10.0750   -11.2370 hc         1 H1X       0.032922
     38 H14         -2.5400    11.2940    -7.1440 hc         1 H1X       0.032922
     39 H15         -1.6750     9.7890    -7.4800 hc         1 H1X       0.032922
     40 H16         -0.9390    11.3380    -7.8720 hc         1 H1X       0.032922
     41 H17         -1.6750     6.8510   -12.4440 ha         1 H1X       0.088000
     42 H18         -1.9420     4.4250   -11.9780 ha         1 H1X       0.092000
     43 H19         -4.2110     3.4590   -11.8760 ha         1 H1X       0.127000
     44 H20         -7.0620     6.8080   -12.5390 hn         1 H1X       0.595000
@<TRIPOS>BOND
     1     1     2 ar  
     2     1    17 ar  
     3     1    19 1   
     4     2    14 ar  
     5     2    25 1   
     6     3     4 ar  
     7     3     8 ar  
     8     3    24 1   
     9     4     5 ar  
    10     4     9 1   
    11     5     6 ar  
    12     5    26 1   
    13     6     7 ar  
    14     6    27 1   
    15     7     8 ar  
    16     7    10 1   
    17     8    28 1   
    18     9    29 1   
    19     9    30 1   
    20     9    31 1   
    21    10    11 1   
    22    10    12 1   
    23    10    13 1   
    24    11    32 1   
    25    11    33 1   
    26    11    34 1   
    27    12    35 1   
    28    12    36 1   
    29    12    37 1   
    30    13    38 1   
    31    13    39 1   
    32    13    40 1   
    33    14    15 ar  
    34    14    41 1   
    35    15    16 ar  
    36    15    42 1   
    37    16    17 ar  
    38    16    43 1   
    39    17    18 1   
    40    18    22 1   
    41    18    23 1   
    42    19    24 1   
    43    19    44 1   
    44    20    24 2   
    45    21    24 2   
@<TRIPOS>SUBSTRUCTURE
     1 H1X         1 TEMP              0 ****  ****    0 ROOT
