@<TRIPOS>MOLECULE
H1X
   44    45     1     0     0
SMALL
No Charge or Current Charge


@<TRIPOS>ATOM
      1 C1          -4.8610     6.9990   -12.7210 ca         1 H1X       0.328000
      2 C2          -3.8220     7.5970   -13.4560 ca         1 H1X      -0.192000
      3 C15         -6.0300     9.1080   -10.6740 ca         1 H1X      -0.278500
      4 C16         -6.7520     8.7730    -9.4980 ca         1 H1X       0.038700
      5 C17         -6.1080     8.8950    -8.2530 ca         1 H1X      -0.144000
      6 C18         -4.7750     9.3200    -8.1560 ca         1 H1X      -0.064000
      7 C19         -4.0350     9.6440    -9.3150 ca         1 H1X      -0.105300
      8 C20         -4.6890     9.5370   -10.5620 ca         1 H1X      -0.016000
      9 C21         -8.1970     8.2820    -9.4980 c3         1 H1X      -0.083800
     10 C25         -2.5500    10.0940    -9.2670 c3         1 H1X       0.005300
     11 C26         -2.4250    11.5170    -9.8750 c3         1 H1X      -0.082100
     12 C27         -1.6880     9.1010   -10.0940 c3         1 H1X      -0.082100
     13 C28         -1.9730    10.1380    -7.8240 c3         1 H1X      -0.082100
     14 C3          -2.4970     7.1590   -13.3160 ca         1 H1X      -0.096000
     15 C4          -2.2060     6.1110   -12.4350 ca         1 H1X      -0.171000
     16 C5          -3.2350     5.4980   -11.7030 ca         1 H1X      -0.059000
     17 C6          -4.5790     5.9270   -11.8380 ca         1 H1X      -0.189600
     18 C7          -5.6600     5.2400   -11.0260 c          1 H1X       0.721600
     19 N1          -6.1480     7.4750   -12.8780 nu         1 H1X      -0.951100
     20 O13         -8.1380     8.7810   -12.3650 o          1 H1X      -0.567000
     21 O14         -6.0190     9.9100   -13.2510 o          1 H1X      -0.567000
     22 O8          -5.3200     4.5410   -10.0830 o          1 H1X      -0.691500
     23 O9          -6.8310     5.3880   -11.3530 o          1 H1X      -0.691500
     24 S12         -6.6870     8.9620   -12.3570 sy         1 H1X       1.163600
     25 H1          -4.0410     8.4060   -14.1460 ha         1 H1X       0.114000
     26 H2          -6.6420     8.6480    -7.3390 ha         1 H1X       0.104000
     27 H3          -4.3380     9.3830    -7.1640 ha         1 H1X       0.100000
     28 H4          -4.1380     9.7760   -11.4680 ha         1 H1X       0.135000
     29 H5          -8.3220     7.3920   -10.1240 hc         1 H1X       0.067367
     30 H6          -8.5340     8.0060    -8.4920 hc         1 H1X       0.067367
     31 H7          -8.8800     9.0610    -9.8580 hc         1 H1X       0.067367
     32 H8          -3.0550    12.2280    -9.3270 hc         1 H1X       0.032922
     33 H9          -1.3890    11.8750    -9.8260 hc         1 H1X       0.032922
     34 H10         -2.7310    11.5360   -10.9270 hc         1 H1X       0.032922
     35 H11         -0.6240     9.3600   -10.0350 hc         1 H1X       0.032922
     36 H12         -1.8100     8.0780    -9.7200 hc         1 H1X       0.032922
     37 H13         -1.9670     9.1080   -11.1540 hc         1 H1X       0.032922
     38 H14         -2.5270    10.8480    -7.1970 hc         1 H1X       0.032922
     39 H15         -2.0140     9.1490    -7.3510 hc         1 H1X       0.032922
     40 H16         -0.9230    10.4560    -7.8320 hc         1 H1X       0.032922
     41 H17         -1.7010     7.6310   -13.8880 ha         1 H1X       0.088000
     42 H18         -1.1800     5.7680   -12.3200 ha         1 H1X       0.092000
     43 H19         -2.9830     4.6820   -11.0300 ha         1 H1X       0.127000
     44 H20         -6.8080     6.8700   -12.3880 hn         1 H1X       0.595000
@<TRIPOS>BOND
     1     1     2 ar  
     2     1    17 ar  
     3     1    19 1   
     4     2    14 ar  
     5     2    25 1   
     6     3     4 ar  
     7     3     8 ar  
     8     3    24 1   
     9     4     5 ar  
    10     4     9 1   
    11     5     6 ar  
    12     5    26 1   
    13     6     7 ar  
    14     6    27 1   
    15     7     8 ar  
    16     7    10 1   
    17     8    28 1   
    18     9    29 1   
    19     9    30 1   
    20     9    31 1   
    21    10    11 1   
    22    10    12 1   
    23    10    13 1   
    24    11    32 1   
    25    11    33 1   
    26    11    34 1   
    27    12    35 1   
    28    12    36 1   
    29    12    37 1   
    30    13    38 1   
    31    13    39 1   
    32    13    40 1   
    33    14    15 ar  
    34    14    41 1   
    35    15    16 ar  
    36    15    42 1   
    37    16    17 ar  
    38    16    43 1   
    39    17    18 1   
    40    18    22 1   
    41    18    23 1   
    42    19    24 1   
    43    19    44 1   
    44    20    24 2   
    45    21    24 2   
@<TRIPOS>SUBSTRUCTURE
     1 H1X         1 TEMP              0 ****  ****    0 ROOT
