@<TRIPOS>MOLECULE
H1Y
   29    30     1     0     0
SMALL
No Charge or Current Charge


@<TRIPOS>ATOM
      1 N1          -0.1130    -0.2440     0.7670 ns         1 H1Y      -0.156000
      2 C4          -1.7650     1.6110     0.4780 ca         1 H1Y      -0.133000
      3 C5          -3.0170     2.0410     0.0020 ca         1 H1Y      -0.076000
      4 C6          -3.8760     1.1350    -0.6400 ca         1 H1Y      -0.132000
      5 C7          -3.4820    -0.2010    -0.8050 ca         1 H1Y       0.150000
      6 C8          -2.2330    -0.6320    -0.3310 ca         1 H1Y      -0.170000
      7 C10          4.2860     0.4720     0.8830 ca         1 H1Y      -0.091500
      8 C13          4.2480    -1.0630    -1.4690 ca         1 H1Y      -0.108000
      9 C2           0.9700     0.3530     1.4010 c          1 H1Y       0.606100
     10 C3          -1.3600     0.2660     0.3140 ca         1 H1Y      -0.005000
     11 O1           1.0300     1.5410     1.6970 o          1 H1Y      -0.557100
     12 C9           3.2410    -0.4470     0.6680 ca         1 H1Y      -0.074300
     13 C11          5.3070     0.6230    -0.0720 ca         1 H1Y      -0.108000
     14 C12          5.2890    -0.1450    -1.2480 ca         1 H1Y      -0.102000
     15 C14          3.2270    -1.2130    -0.5150 ca         1 H1Y      -0.091500
     16 H1           0.0100    -1.2320     0.5890 hn         1 H1Y       0.149000
     17 H2          -1.1280     2.3390     0.9700 ha         1 H1Y       0.151000
     18 H3          -3.3210     3.0780     0.1320 ha         1 H1Y       0.120000
     19 H4          -4.8440     1.4660    -1.0080 ha         1 H1Y       0.132000
     20 H5          -1.9430    -1.6710    -0.4670 ha         1 H1Y       0.123000
     21 H7           4.2320    -1.6570    -2.3800 ha         1 H1Y       0.113000
     22 H10          6.1110     1.3350     0.1000 ha         1 H1Y       0.113000
     23 H11          6.0780    -0.0280    -1.9870 ha         1 H1Y       0.113000
     24 H12          2.4260    -1.9270    -0.6970 ha         1 H1Y       0.110000
     25 Cl1         -4.5540    -1.3390    -1.6070 cl         1 H1Y      -0.205000
     26 C1           2.1300    -0.6060     1.7000 c3         1 H1Y      -0.113100
     27 H6           4.3080     1.0740     1.7900 ha         1 H1Y       0.110000
     28 H8           2.5220    -0.3820     2.6990 hc         1 H1Y       0.066200
     29 H9           1.7690    -1.6410     1.6790 hc         1 H1Y       0.066200
@<TRIPOS>BOND
     1     1     9 1   
     2     1    10 1   
     3     1    16 1   
     4     2     3 ar  
     5     2    10 ar  
     6     2    17 1   
     7     3     4 ar  
     8     3    18 1   
     9     4     5 ar  
    10     4    19 1   
    11     5     6 ar  
    12     5    25 1   
    13     6    10 ar  
    14     6    20 1   
    15     7    12 ar  
    16     7    13 ar  
    17     7    27 1   
    18     8    14 ar  
    19     8    15 ar  
    20     8    21 1   
    21     9    11 2   
    22     9    26 1   
    23    12    15 ar  
    24    12    26 1   
    25    13    14 ar  
    26    13    22 1   
    27    14    23 1   
    28    15    24 1   
    29    26    28 1   
    30    26    29 1   
@<TRIPOS>SUBSTRUCTURE
     1 H1Y         1 TEMP              0 ****  ****    0 ROOT
