@<TRIPOS>MOLECULE
H1Y
   29    30     1     0     0
SMALL
abcg2


@<TRIPOS>ATOM
      1 N1          -0.3650    -0.4430     0.5440 ns         1 H1Y      -0.156000
      2 C4          -1.7370     1.5100    -0.0890 ca         1 H1Y      -0.133000
      3 C5          -3.0090     2.0220    -0.2990 ca         1 H1Y      -0.076000
      4 C6          -4.1470     1.2470    -0.1370 ca         1 H1Y      -0.132000
      5 C7          -3.9810    -0.0740     0.2480 ca         1 H1Y       0.150000
      6 C8          -2.7280    -0.6180     0.4610 ca         1 H1Y      -0.170000
      7 C10          4.1430     0.2150     1.1140 ca         1 H1Y      -0.091500
      8 C13          5.0840    -0.4770    -1.3990 ca         1 H1Y      -0.108000
      9 C2           0.8980     0.0040     0.2880 c          1 H1Y       0.606100
     10 C3          -1.5890     0.1750     0.2940 ca         1 H1Y      -0.005000
     11 O1           1.1490     1.0830    -0.2070 o          1 H1Y      -0.557100
     12 C9           3.3420    -0.5520     0.2740 ca         1 H1Y      -0.074300
     13 C11          5.4020     0.6330     0.7050 ca         1 H1Y      -0.108000
     14 C12          5.8760     0.2890    -0.5540 ca         1 H1Y      -0.102000
     15 C14          3.8250    -0.8930    -0.9860 ca         1 H1Y      -0.091500
     16 H1          -0.4300    -1.3760     0.9230 hn         1 H1Y       0.149000
     17 H2          -0.8790     2.1480    -0.2200 ha         1 H1Y       0.151000
     18 H3          -3.1150     3.0580    -0.5930 ha         1 H1Y       0.120000
     19 H4          -5.1320     1.6600    -0.3030 ha         1 H1Y       0.132000
     20 H5          -2.6290    -1.6550     0.7550 ha         1 H1Y       0.123000
     21 H7           5.4450    -0.7530    -2.3810 ha         1 H1Y       0.113000
     22 H10          6.0130     1.2280     1.3710 ha         1 H1Y       0.113000
     23 H11          6.8580     0.6140    -0.8720 ha         1 H1Y       0.113000
     24 H12          3.2150    -1.4950    -1.6490 ha         1 H1Y       0.110000
     25 CL1         -5.3760    -1.0800     0.4640 cl         1 H1Y      -0.205000
     26 C1           1.9740    -0.9860     0.7050 c3         1 H1Y      -0.113100
     27 H6           3.7820     0.4850     2.1000 ha         1 H1Y       0.110000
     28 H8           1.9260    -1.0920     1.7920 hc         1 H1Y       0.066200
     29 H9           1.7320    -1.9700     0.2950 hc         1 H1Y       0.066200
@<TRIPOS>BOND
     1     1     9 1   
     2     1    10 1   
     3     1    16 1   
     4     2     3 ar  
     5     2    10 ar  
     6     2    17 1   
     7     3     4 ar  
     8     3    18 1   
     9     4     5 ar  
    10     4    19 1   
    11     5     6 ar  
    12     5    25 1   
    13     6    10 ar  
    14     6    20 1   
    15     7    12 ar  
    16     7    13 ar  
    17     7    27 1   
    18     8    14 ar  
    19     8    15 ar  
    20     8    21 1   
    21     9    11 2   
    22     9    26 1   
    23    12    15 ar  
    24    12    26 1   
    25    13    14 ar  
    26    13    22 1   
    27    14    23 1   
    28    15    24 1   
    29    26    28 1   
    30    26    29 1   
@<TRIPOS>SUBSTRUCTURE
     1 H1Y         1 TEMP              0 ****  ****    0 ROOT
