@<TRIPOS>MOLECULE
H1Z
   30    30     1     0     0
SMALL
abcg2


@<TRIPOS>ATOM
      1 C4          -0.9450    -0.4040     0.0170 ca         1 H1Z       0.208100
      2 C5          -0.0770    -1.5020    -0.0580 ca         1 H1Z      -0.202500
      3 C6           1.2860    -1.3130    -0.0480 ca         1 H1Z       0.032000
      4 C7           1.8020    -0.0220     0.0420 ca         1 H1Z      -0.324500
      5 C8           0.9550     1.0700     0.1210 ca         1 H1Z       0.032000
      6 C9          -0.4200     0.8840     0.1070 ca         1 H1Z      -0.202500
      7 O2           3.8270     1.5740     0.4590 o          1 H1Z      -0.548000
      8 S            3.5470     0.2010     0.0590 sy         1 H1Z       1.132600
      9 O1           4.1730    -0.8750     0.8180 o          1 H1Z      -0.548000
     10 N            3.9290    -0.0980    -1.5220 n8         1 H1Z      -1.000100
     11 O           -2.2490    -0.6870    -0.0050 os         1 H1Z      -0.343100
     12 C3          -3.2030     0.3700     0.0360 c3         1 H1Z       0.163600
     13 C2          -4.5850    -0.2450    -0.0260 c3         1 H1Z      -0.084400
     14 C1          -5.6770     0.8180    -0.0070 c3         1 H1Z      -0.073400
     15 C           -7.0720     0.2100    -0.0610 c3         1 H1Z      -0.089100
     16 H1          -0.4880    -2.5020    -0.1250 ha         1 H1Z       0.128000
     17 H2           1.9420    -2.1710    -0.1080 ha         1 H1Z       0.136500
     18 H3           1.3480     2.0750     0.1950 ha         1 H1Z       0.136500
     19 H4          -1.0600     1.7530     0.1700 ha         1 H1Z       0.128000
     20 H5           3.6280     0.6470    -2.1430 hn         1 H1Z       0.470000
     21 H6           4.9240    -0.2640    -1.6370 hn         1 H1Z       0.470000
     22 H7          -3.0850     0.9500     0.9580 h1         1 H1Z       0.038700
     23 H8          -3.0460     1.0510    -0.8070 h1         1 H1Z       0.038700
     24 H9          -4.6740    -0.8470    -0.9350 hc         1 H1Z       0.057200
     25 H10         -4.7180    -0.9240     0.8200 hc         1 H1Z       0.057200
     26 H11         -5.5790     1.4290     0.8950 hc         1 H1Z       0.039200
     27 H12         -5.5410     1.4980    -0.8530 hc         1 H1Z       0.039200
     28 H13         -7.2080    -0.3800    -0.9690 hc         1 H1Z       0.035700
     29 H14         -7.2470    -0.4510     0.7900 hc         1 H1Z       0.035700
     30 H15         -7.8420     0.9810    -0.0460 hc         1 H1Z       0.035700
@<TRIPOS>BOND
     1     1     2 ar  
     2     1     6 ar  
     3     1    11 1   
     4     2     3 ar  
     5     2    16 1   
     6     3     4 ar  
     7     3    17 1   
     8     4     5 ar  
     9     4     8 1   
    10     5     6 ar  
    11     5    18 1   
    12     6    19 1   
    13     7     8 2   
    14     8     9 2   
    15     8    10 1   
    16    10    20 1   
    17    10    21 1   
    18    11    12 1   
    19    12    13 1   
    20    12    22 1   
    21    12    23 1   
    22    13    14 1   
    23    13    24 1   
    24    13    25 1   
    25    14    15 1   
    26    14    26 1   
    27    14    27 1   
    28    15    28 1   
    29    15    29 1   
    30    15    30 1   
@<TRIPOS>SUBSTRUCTURE
     1 H1Z         1 TEMP              0 ****  ****    0 ROOT
