@<TRIPOS>MOLECULE
H1Z
   30    30     1     0     0
SMALL
No Charge or Current Charge


@<TRIPOS>ATOM
      1 C4          -0.8900    -0.4540     0.0170 ca         1 H1Z       0.208100
      2 C5          -0.0500    -1.5770     0.0150 ca         1 H1Z      -0.202500
      3 C6           1.3460    -1.4250     0.0370 ca         1 H1Z       0.032000
      4 C7           1.9090    -0.1340     0.0610 ca         1 H1Z      -0.324500
      5 C8           1.0700     0.9990     0.0640 ca         1 H1Z       0.032000
      6 C9          -0.3260     0.8380     0.0410 ca         1 H1Z      -0.202500
      7 O2           4.0370     1.4220     0.4860 o          1 H1Z      -0.548000
      8 S            3.6880     0.0600     0.0910 sy         1 H1Z       1.132600
      9 O1           4.3260    -1.1260     0.6620 o          1 H1Z      -0.548000
     10 N            4.0450     0.0120    -1.5030 n8         1 H1Z      -1.000100
     11 O           -2.2530    -0.6710    -0.0050 os         1 H1Z      -0.343100
     12 C3          -3.2000     0.4100    -0.0040 c3         1 H1Z       0.163600
     13 C2          -4.6110    -0.2070    -0.0320 c3         1 H1Z      -0.084400
     14 C1          -5.7330     0.8550    -0.0340 c3         1 H1Z      -0.073400
     15 C           -7.1460     0.2400    -0.0610 c3         1 H1Z      -0.089100
     16 H1          -0.4850    -2.5730    -0.0040 ha         1 H1Z       0.128000
     17 H2           1.9820    -2.3100     0.0340 ha         1 H1Z       0.136500
     18 H3           1.4910     2.0040     0.0850 ha         1 H1Z       0.136500
     19 H4          -0.9500     1.7270     0.0440 ha         1 H1Z       0.128000
     20 H5           3.1490     0.2360    -1.9290 hn         1 H1Z       0.470000
     21 H6           4.5850     0.8680    -1.6040 hn         1 H1Z       0.470000
     22 H7          -3.0860     1.0250     0.8980 h1         1 H1Z       0.038700
     23 H8          -3.0610     1.0480    -0.8870 h1         1 H1Z       0.038700
     24 H9          -4.7080    -0.8370    -0.9250 hc         1 H1Z       0.057200
     25 H10         -4.7320    -0.8610     0.8410 hc         1 H1Z       0.057200
     26 H11         -5.6370     1.4870     0.8580 hc         1 H1Z       0.039200
     27 H12         -5.6120     1.5100    -0.9050 hc         1 H1Z       0.039200
     28 H13         -7.2860    -0.3710    -0.9610 hc         1 H1Z       0.035700
     29 H14         -7.3110    -0.3940     0.8180 hc         1 H1Z       0.035700
     30 H15         -7.9070     1.0300    -0.0610 hc         1 H1Z       0.035700
@<TRIPOS>BOND
     1     1     2 ar  
     2     1     6 ar  
     3     1    11 1   
     4     2     3 ar  
     5     2    16 1   
     6     3     4 ar  
     7     3    17 1   
     8     4     5 ar  
     9     4     8 1   
    10     5     6 ar  
    11     5    18 1   
    12     6    19 1   
    13     7     8 2   
    14     8     9 2   
    15     8    10 1   
    16    10    20 1   
    17    10    21 1   
    18    11    12 1   
    19    12    13 1   
    20    12    22 1   
    21    12    23 1   
    22    13    14 1   
    23    13    24 1   
    24    13    25 1   
    25    14    15 1   
    26    14    26 1   
    27    14    27 1   
    28    15    28 1   
    29    15    29 1   
    30    15    30 1   
@<TRIPOS>SUBSTRUCTURE
     1 H1Z         1 TEMP              0 ****  ****    0 ROOT
