@<TRIPOS>MOLECULE
H20
   44    46     1     0     0
SMALL
No Charge or Current Charge


@<TRIPOS>ATOM
      1 CA          -1.9220    -0.1640    -0.1410 c6         1 H20       0.179300
      2 CB          -2.3620     0.8980     0.9020 c6         1 H20      -0.090400
      3 CC          -3.5670     1.7270     0.3890 c6         1 H20      -0.073400
      4 CD          -4.7520     0.8100    -0.0010 c6         1 H20      -0.077400
      5 CE          -4.3170    -0.2540    -1.0400 c6         1 H20      -0.073400
      6 CF          -3.1110    -1.0790    -0.5240 c6         1 H20      -0.090400
      7 N1           2.8260     0.7700     0.9290 ns         1 H20      -0.376100
      8 C6           2.1750     0.3990     2.0820 c          1 H20       0.571200
      9 O2           2.6980     0.6180     3.1630 o          1 H20      -0.548000
     10 C5           0.8420    -0.2550     1.8790 cc         1 H20      -0.194400
     11 C4           0.3980    -0.4240     0.5760 cd         1 H20       0.195900
     12 O4          -0.8390    -0.9760     0.3670 os         1 H20      -0.372100
     13 C2           2.4160     0.5660    -0.3950 ca         1 H20       0.105600
     14 C3           1.1830    -0.0610    -0.6160 ca         1 H20      -0.147800
     15 C7           0.7860    -0.3480    -1.9430 ca         1 H20      -0.039000
     16 C8           1.5990     0.0400    -3.0210 ca         1 H20       0.074000
     17 C9           2.8180     0.6990    -2.7880 ca         1 H20      -0.049000
     18 C10          3.2310     0.9550    -1.4690 ca         1 H20      -0.163000
     19 Cl           1.0940    -0.3110    -4.6690 cl         1 H20      -0.197000
     20 C12          0.7690    -1.8320     3.8940 c3         1 H20      -0.086100
     21 C13         -0.3130     0.4910     4.0560 c3         1 H20      -0.086100
     22 HA          -1.5870     0.3640    -1.0440 h1         1 H20       0.045700
     23 HB1         -2.6320     0.4030     1.8450 hc         1 H20       0.053950
     24 HB2         -1.5260     1.5740     1.1240 hc         1 H20       0.053950
     25 HC1         -3.2600     2.3260    -0.4790 hc         1 H20       0.043200
     26 HC2         -3.8850     2.4390     1.1630 hc         1 H20       0.043200
     27 HD1         -5.5730     1.4150    -0.4080 hc         1 H20       0.043200
     28 HD2         -5.1460     0.3120     0.8960 hc         1 H20       0.043200
     29 HE1         -4.0510     0.2390    -1.9850 hc         1 H20       0.043200
     30 HE2         -5.1590    -0.9230    -1.2630 hc         1 H20       0.043200
     31 HF1         -2.7950    -1.7930    -1.2960 hc         1 H20       0.053950
     32 HF2         -3.4160    -1.6740     0.3480 hc         1 H20       0.053950
     33 HN1          3.7240     1.2170     1.0640 hn         1 H20       0.330500
     34 H7          -0.1370    -0.8830    -2.1500 ha         1 H20       0.141000
     35 H9           3.4450     0.9950    -3.6260 ha         1 H20       0.133000
     36 H10          4.1850     1.4460    -1.2870 ha         1 H20       0.125000
     37 H11         -0.8880    -1.1120     2.8060 hc         1 H20       0.056700
     38 H121         0.1200    -2.2100     4.6940 hc         1 H20       0.038867
     39 H122         0.9910    -2.6660     3.2180 hc         1 H20       0.038867
     40 H123         1.7070    -1.5000     4.3510 hc         1 H20       0.038867
     41 H131         0.5600     0.9030     4.5720 hc         1 H20       0.038867
     42 H132        -0.7870     1.2980     3.4860 hc         1 H20       0.038867
     43 H133        -1.0240     0.1570     4.8210 hc         1 H20       0.038867
     44 C11          0.0690    -0.6870     3.1270 c3         1 H20      -0.000500
@<TRIPOS>BOND
     1     1     2 1   
     2     1     6 1   
     3     1    12 1   
     4     1    22 1   
     5     2     3 1   
     6     2    23 1   
     7     2    24 1   
     8     3     4 1   
     9     3    25 1   
    10     3    26 1   
    11     4     5 1   
    12     4    27 1   
    13     4    28 1   
    14     5     6 1   
    15     5    29 1   
    16     5    30 1   
    17     6    31 1   
    18     6    32 1   
    19     7     8 1   
    20     7    13 1   
    21     7    33 1   
    22     8     9 2   
    23     8    10 1   
    24    10    11 2   
    25    10    44 1   
    26    11    12 1   
    27    11    14 1   
    28    13    14 ar  
    29    13    18 ar  
    30    14    15 ar  
    31    15    16 ar  
    32    15    34 1   
    33    16    17 ar  
    34    16    19 1   
    35    17    18 ar  
    36    17    35 1   
    37    18    36 1   
    38    20    38 1   
    39    20    39 1   
    40    20    40 1   
    41    20    44 1   
    42    21    41 1   
    43    21    42 1   
    44    21    43 1   
    45    21    44 1   
    46    37    44 1   
@<TRIPOS>SUBSTRUCTURE
     1 H20         1 TEMP              0 ****  ****    0 ROOT
