@<TRIPOS>MOLECULE
H20
   44    46     1     0     0
SMALL
abcg2


@<TRIPOS>ATOM
      1 CA          -1.9160    -0.0640     0.0010 c6         1 H20       0.179300
      2 CB          -2.5860     0.6800     1.1450 c6         1 H20      -0.090400
      3 CC          -3.7230     1.5520     0.6140 c6         1 H20      -0.073400
      4 CD          -4.7370     0.7250    -0.1690 c6         1 H20      -0.077400
      5 CE          -4.0580    -0.0540    -1.2900 c6         1 H20      -0.073400
      6 CF          -2.9130    -0.9150    -0.7640 c6         1 H20      -0.090400
      7 N1           2.8330     0.7400     0.8520 ns         1 H20      -0.376100
      8 C6           2.2030     0.3990     2.0200 c          1 H20       0.571200
      9 O2           2.7640     0.6090     3.0890 o          1 H20      -0.548000
     10 C5           0.8640    -0.1770     1.8880 cc         1 H20      -0.194400
     11 C4           0.3530    -0.3910     0.6450 cd         1 H20       0.195900
     12 O4          -0.8700    -0.9390     0.4790 os         1 H20      -0.372100
     13 C2           2.3670     0.4960    -0.4070 ca         1 H20       0.105600
     14 C3           1.1110    -0.1010    -0.5540 ca         1 H20      -0.147800
     15 C7           0.6610    -0.4250    -1.8400 ca         1 H20      -0.039000
     16 C8           1.4330    -0.1130    -2.9350 ca         1 H20       0.074000
     17 C9           2.6690     0.5170    -2.7910 ca         1 H20      -0.049000
     18 C10          3.1350     0.8150    -1.5310 ca         1 H20      -0.163000
     19 CL           0.8700    -0.5200    -4.5230 cl         1 H20      -0.197000
     20 C12          0.7860    -1.7100     3.8800 c3         1 H20      -0.086100
     21 C13         -0.1430     0.6350     4.0770 c3         1 H20      -0.086100
     22 HA          -1.4760     0.6730    -0.6830 h1         1 H20       0.045700
     23 HB1         -2.9900    -0.0430     1.8610 hc         1 H20       0.053950
     24 HB2         -1.8610     1.2980     1.6800 hc         1 H20       0.053950
     25 HC1         -3.3130     2.3370    -0.0300 hc         1 H20       0.043200
     26 HC2         -4.2090     2.0620     1.4490 hc         1 H20       0.043200
     27 HD1         -5.5170     1.3700    -0.5780 hc         1 H20       0.043200
     28 HD2         -5.2340     0.0240     0.5110 hc         1 H20       0.043200
     29 HE1         -3.6680     0.6470    -2.0350 hc         1 H20       0.043200
     30 HE2         -4.7810    -0.6860    -1.8110 hc         1 H20       0.043200
     31 HF1         -2.4170    -1.4270    -1.5930 hc         1 H20       0.053950
     32 HF2         -3.3060    -1.6940    -0.1010 hc         1 H20       0.053950
     33 HN1          3.7470     1.1630     0.9490 hn         1 H20       0.330500
     34 H7          -0.2820    -0.9360    -1.9770 ha         1 H20       0.141000
     35 H9           3.2650     0.7600    -3.6600 ha         1 H20       0.133000
     36 H10          4.1010     1.2890    -1.4100 ha         1 H20       0.125000
     37 H11         -0.8680    -0.9100     2.8270 hc         1 H20       0.056700
     38 H121         0.1720    -2.0190     4.7280 hc         1 H20       0.038867
     39 H122         0.9060    -2.5750     3.2270 hc         1 H20       0.038867
     40 H123         1.7660    -1.4340     4.2640 hc         1 H20       0.038867
     41 H131         0.7740     1.0190     4.5180 hc         1 H20       0.038867
     42 H132        -0.6360     1.4550     3.5530 hc         1 H20       0.038867
     43 H133        -0.8020     0.3250     4.8900 hc         1 H20       0.038867
     44 C11          0.1110    -0.5500     3.1440 c3         1 H20      -0.000500
@<TRIPOS>BOND
     1     1     2 1   
     2     1     6 1   
     3     1    12 1   
     4     1    22 1   
     5     2     3 1   
     6     2    23 1   
     7     2    24 1   
     8     3     4 1   
     9     3    25 1   
    10     3    26 1   
    11     4     5 1   
    12     4    27 1   
    13     4    28 1   
    14     5     6 1   
    15     5    29 1   
    16     5    30 1   
    17     6    31 1   
    18     6    32 1   
    19     7     8 1   
    20     7    13 1   
    21     7    33 1   
    22     8     9 2   
    23     8    10 1   
    24    10    11 2   
    25    10    44 1   
    26    11    12 1   
    27    11    14 1   
    28    13    14 ar  
    29    13    18 ar  
    30    14    15 ar  
    31    15    16 ar  
    32    15    34 1   
    33    16    17 ar  
    34    16    19 1   
    35    17    18 ar  
    36    17    35 1   
    37    18    36 1   
    38    20    38 1   
    39    20    39 1   
    40    20    40 1   
    41    20    44 1   
    42    21    41 1   
    43    21    42 1   
    44    21    43 1   
    45    21    44 1   
    46    37    44 1   
@<TRIPOS>SUBSTRUCTURE
     1 H20         1 TEMP              0 ****  ****    0 ROOT
