@<TRIPOS>MOLECULE
H21
   46    49     1     0     0
SMALL
No Charge or Current Charge


@<TRIPOS>ATOM
      1 F3          -3.8060     9.1150    20.4810 f          1 H21      -0.149000
      2 C17         -5.0430     8.9090    19.9770 ca         1 H21       0.200000
      3 C11         -5.2420     7.8140    19.1220 ca         1 H21      -0.120000
      4 C9          -6.5210     7.5160    18.6030 ca         1 H21       0.046600
      5 N1          -6.7290     6.3200    17.8090 n          1 H21      -0.204200
      6 C21         -7.8920     5.5610    18.0180 cc         1 H21      -0.025400
      7 C29         -8.2330     4.4750    17.2360 cd         1 H21      -0.298000
      8 C30         -7.3740     4.0740    16.1620 cd         1 H21      -0.085000
      9 C23         -6.2340     4.8140    15.9480 cc         1 H21      -0.317200
     10 C8          -5.8510     5.9900    16.7420 c          1 H21       0.555200
     11 O25         -4.8510     6.6390    16.4640 o          1 H21      -0.536000
     12 C26         -7.6140     8.2930    19.0540 ca         1 H21      -0.113000
     13 C28         -7.4190     9.3890    19.9110 ca         1 H21      -0.103000
     14 C16         -6.1310     9.7260    20.3610 ca         1 H21      -0.082000
     15 N15         -5.9950    10.8430    21.2320 ns         1 H21      -0.147000
     16 C14         -5.0070    11.8170    21.3070 c          1 H21       0.604100
     17 O27         -4.0920    11.9160    20.4950 o          1 H21      -0.553100
     18 C22         -5.1740    12.8020    22.4700 c3         1 H21       0.000600
     19 N4          -5.0450    12.1700    23.7990 na         1 H21      -0.081700
     20 C20         -5.9720    12.1350    24.8120 cc         1 H21       0.435400
     21 C5          -2.0770     9.9720    25.9270 c          1 H21       0.652700
     22 O24         -1.4820    10.1710    24.8790 o          1 H21      -0.544100
     23 C2          -1.4740     9.2240    27.0470 cc         1 H21      -0.315600
     24 C12         -2.0460     8.9370    28.2730 cd         1 H21      -0.086000
     25 C19         -1.1830     8.1930    29.1250 cd         1 H21      -0.134000
     26 S3           0.1580     8.5710    26.9240 ss         1 H21       0.373000
     27 C10          0.0320     7.9160    28.5540 cc         1 H21      -0.044000
     28 Cl1          1.3230     7.0300    29.3070 cl         1 H21      -0.133000
     29 N2          -5.4460    11.4680    25.8230 nd         1 H21      -0.735000
     30 N5          -3.9100    11.5280    24.1650 nc         1 H21      -0.513800
     31 C1          -4.1900    11.1160    25.3920 cd         1 H21       0.653900
     32 H11         -4.3910     7.1830    18.8860 ha         1 H21       0.151000
     33 H26         -8.6230     8.0790    18.7090 ha         1 H21       0.130000
     34 H21         -8.4720     5.8900    18.8740 h4         1 H21       0.203000
     35 H29         -9.1430     3.9170    17.4470 ha         1 H21       0.201000
     36 H30         -7.6160     3.2160    15.5350 ha         1 H21       0.187000
     37 H23         -5.5490     4.5680    15.1440 ha         1 H21       0.210000
     38 H28         -8.2760     9.9860    20.2180 ha         1 H21       0.121000
     39 H15         -6.7310    10.9290    21.9200 hn         1 H21       0.165000
     40 H221        -4.4110    13.5820    22.3680 h1         1 H21       0.097200
     41 H222        -6.1610    13.2690    22.3790 h1         1 H21       0.097200
     42 H20         -6.9550    12.5870    24.7480 h5         1 H21       0.068100
     43 H7          -3.6980    10.1650    27.0930 hn         1 H21       0.343500
     44 H12         -3.0440     9.2340    28.5800 ha         1 H21       0.134000
     45 H19         -1.4580     7.8750    30.1260 ha         1 H21       0.149000
     46 N7          -3.3480    10.4090    26.1840 ns         1 H21      -0.461400
@<TRIPOS>BOND
     1     1     2 1   
     2     2     3 ar  
     3     2    14 ar  
     4     3     4 ar  
     5     3    32 1   
     6     4     5 1   
     7     4    12 ar  
     8     5     6 1   
     9     5    10 1   
    10     6     7 2   
    11     6    34 1   
    12     7     8 1   
    13     7    35 1   
    14     8     9 2   
    15     8    36 1   
    16     9    10 1   
    17     9    37 1   
    18    10    11 2   
    19    12    13 ar  
    20    12    33 1   
    21    13    14 ar  
    22    13    38 1   
    23    14    15 1   
    24    15    16 1   
    25    15    39 1   
    26    16    17 2   
    27    16    18 1   
    28    18    19 1   
    29    18    40 1   
    30    18    41 1   
    31    19    20 1   
    32    19    30 1   
    33    20    29 2   
    34    20    42 1   
    35    21    22 2   
    36    21    23 1   
    37    21    46 1   
    38    23    24 2   
    39    23    26 1   
    40    24    25 1   
    41    24    44 1   
    42    25    27 2   
    43    25    45 1   
    44    26    27 1   
    45    27    28 1   
    46    29    31 1   
    47    30    31 2   
    48    31    46 1   
    49    43    46 1   
@<TRIPOS>SUBSTRUCTURE
     1 H21         1 TEMP              0 ****  ****    0 ROOT
