@<TRIPOS>MOLECULE
H21
   46    49     1     0     0
SMALL
bcc


@<TRIPOS>ATOM
      1 F3          -3.5990     9.3040    19.9310 f          1 H21      -0.113900
      2 C17         -4.8590     8.8970    19.7730 ca         1 H21       0.164900
      3 C11         -5.1240     7.8890    18.8720 ca         1 H21      -0.138000
      4 C9          -6.4280     7.4330    18.7510 ca         1 H21       0.046600
      5 N1          -6.7200     6.3670    17.8490 n          1 H21      -0.271200
      6 C21         -7.0450     5.1480    18.3660 cc         1 H21       0.024600
      7 C29         -7.3600     4.1020    17.5680 cd         1 H21      -0.248000
      8 C30         -7.3440     4.3050    16.1670 cd         1 H21      -0.035000
      9 C23         -7.0230     5.5160    15.6440 cc         1 H21      -0.267200
     10 C8          -6.6900     6.6390    16.4780 c          1 H21       0.697700
     11 O25         -6.4030     7.7610    16.0790 o          1 H21      -0.611500
     12 C26         -7.4450     7.9790    19.5150 ca         1 H21      -0.131000
     13 C28         -7.1560     9.0030    20.4040 ca         1 H21      -0.121000
     14 C16         -5.8600     9.4800    20.5430 ca         1 H21       0.010600
     15 N15         -5.5710    10.5010    21.4630 ns         1 H21      -0.473100
     16 C14         -5.0280    11.6830    21.1000 c          1 H21       0.671100
     17 O27         -4.7080    11.9580    19.9620 o          1 H21      -0.553100
     18 C22         -4.8780    12.7260    22.1970 c3         1 H21      -0.028700
     19 N4          -4.9120    12.2190    23.5410 na         1 H21      -0.052400
     20 C20         -5.8320    12.4030    24.4910 cc         1 H21       0.435400
     21 C5          -2.4070     9.8630    25.9990 c          1 H21       0.719700
     22 O24         -1.8030     9.8400    24.9450 o          1 H21      -0.544100
     23 C2          -1.8840     9.1560    27.1770 cc         1 H21      -0.170700
     24 C12         -2.3530     9.0220    28.4540 cd         1 H21      -0.104000
     25 C19         -1.5100     8.2360    29.2730 cd         1 H21      -0.152000
     26 S3          -0.3960     8.3180    26.9520 ss         1 H21       0.083200
     27 C10         -0.4200     7.7960    28.5830 cc         1 H21       0.009300
     28 CL1          0.8380     6.8230    29.1920 cl         1 H21      -0.041400
     29 N2          -5.4640    11.7960    25.5940 nd         1 H21      -0.735000
     30 N5          -3.8960    11.4750    24.0170 nc         1 H21      -0.513800
     31 C1          -4.2790    11.2480    25.2490 cd         1 H21       0.653900
     32 H11         -4.3200     7.4510    18.2960 ha         1 H21       0.169000
     33 H26         -8.4610     7.6220    19.4120 ha         1 H21       0.148000
     34 H21         -7.0280     5.0750    19.4440 h4         1 H21       0.153000
     35 H29         -7.6120     3.1460    18.0010 ha         1 H21       0.151000
     36 H30         -7.5910     3.4840    15.5060 ha         1 H21       0.137000
     37 H23         -7.0140     5.6800    14.5750 ha         1 H21       0.160000
     38 H28         -7.9470     9.4440    20.9950 ha         1 H21       0.139000
     39 H15         -5.9270    10.3820    22.3980 hn         1 H21       0.331500
     40 H221        -3.9410    13.2570    22.0350 h1         1 H21       0.097200
     41 H222        -5.6880    13.4480    22.0850 h1         1 H21       0.097200
     42 H20         -6.7350    12.9740    24.3400 h5         1 H21       0.068100
     43 H7          -4.0220    10.4930    27.0960 hn         1 H21       0.343500
     44 H12         -3.2690     9.4610    28.8220 ha         1 H21       0.152000
     45 H19         -1.7010     8.0110    30.3110 ha         1 H21       0.167000
     46 N7          -3.5830    10.5180    26.1890 ns         1 H21      -0.528400
@<TRIPOS>BOND
     1     1     2 1   
     2     2     3 ar  
     3     2    14 ar  
     4     3     4 ar  
     5     3    32 1   
     6     4     5 1   
     7     4    12 ar  
     8     5     6 1   
     9     5    10 1   
    10     6     7 2   
    11     6    34 1   
    12     7     8 1   
    13     7    35 1   
    14     8     9 2   
    15     8    36 1   
    16     9    10 1   
    17     9    37 1   
    18    10    11 2   
    19    12    13 ar  
    20    12    33 1   
    21    13    14 ar  
    22    13    38 1   
    23    14    15 1   
    24    15    16 1   
    25    15    39 1   
    26    16    17 2   
    27    16    18 1   
    28    18    19 1   
    29    18    40 1   
    30    18    41 1   
    31    19    20 1   
    32    19    30 1   
    33    20    29 2   
    34    20    42 1   
    35    21    22 2   
    36    21    23 1   
    37    21    46 1   
    38    23    24 2   
    39    23    26 1   
    40    24    25 1   
    41    24    44 1   
    42    25    27 2   
    43    25    45 1   
    44    26    27 1   
    45    27    28 1   
    46    29    31 1   
    47    30    31 2   
    48    31    46 1   
    49    43    46 1   
@<TRIPOS>SUBSTRUCTURE
     1 H21         1 TEMP              0 ****  ****    0 ROOT
