@<TRIPOS>MOLECULE
H23
   45    44     1     0     0
SMALL
No Charge or Current Charge


@<TRIPOS>ATOM
      1 CAA         30.4620    45.0770    19.2010 c3         1 H23      -0.085100
      2 CAI         30.2450    45.6130    17.7730 c3         1 H23      -0.079400
      3 CAJ         28.8250    45.3380    17.2330 c3         1 H23      -0.074400
      4 CAK         28.6080    45.8750    15.8010 c3         1 H23      -0.078400
      5 CAL         27.1850    45.5960    15.2610 c3         1 H23      -0.067400
      6 CAM         26.9000    46.1960    13.8640 c3         1 H23      -0.077400
      7 CAN         27.7380    45.5830    12.7170 c3         1 H23      -0.079400
      8 CAO         27.3620    46.1450    11.3280 c3         1 H23      -0.079400
      9 CAP         28.1990    45.5360    10.1810 c3         1 H23      -0.069400
     10 CAQ         27.8260    46.0990     8.7900 c3         1 H23      -0.077400
     11 CAR         28.6730    45.4840     7.6390 c3         1 H23      -0.017400
     12 CAS         28.4060    46.0240     6.1890 c3         1 H23      -0.433000
     13 PAT         29.4400    45.0000     4.9950 p5         1 H23       1.359000
     14 OAE         29.0060    43.5770     4.8700 o          1 H23      -0.967667
     15 OAF         29.5210    45.6470     3.6490 o          1 H23      -0.967667
     16 OAB         30.8410    44.9950     5.5210 o          1 H23      -0.967667
     17 PAU         26.6820    45.5690     5.5940 p5         1 H23       1.359000
     18 OAG         26.5010    45.5500     4.1120 o          1 H23      -0.967667
     19 OAH         26.1930    44.2920     6.1960 o          1 H23      -0.967667
     20 OAC         25.8020    46.6600     6.1180 o          1 H23      -0.967667
     21 OAD         28.6490    47.4990     6.2060 oh         1 H23      -0.730000
     22 HAA1        30.3140    43.9910    19.2350 hc         1 H23       0.019367
     23 HAA2        31.4820    45.2950    19.5400 hc         1 H23       0.019367
     24 HAA3        29.7600    45.5440    19.9020 hc         1 H23       0.019367
     25 HAI1        30.4340    46.6940    17.7660 hc         1 H23       0.040700
     26 HAI2        30.9840    45.1540    17.1050 hc         1 H23       0.040700
     27 HAJ1        28.6390    44.2560    17.2430 hc         1 H23       0.024700
     28 HAJ2        28.0890    45.7960    17.9050 hc         1 H23       0.024700
     29 HAK1        28.7910    46.9570    15.7910 hc         1 H23       0.046700
     30 HAK2        29.3500    45.4170    15.1370 hc         1 H23       0.046700
     31 HAL1        27.0140    44.5130    15.2300 hc         1 H23       0.016200
     32 HAL2        26.4540    46.0080    15.9670 hc         1 H23       0.016200
     33 HAM1        25.8360    46.0490    13.6380 hc         1 H23       0.032200
     34 HAM2        27.0650    47.2800    13.8960 hc         1 H23       0.032200
     35 HAN1        28.8020    45.7740    12.8970 hc         1 H23       0.023200
     36 HAN2        27.6020    44.4940    12.7140 hc         1 H23       0.023200
     37 HAO1        26.2990    45.9530    11.1380 hc         1 H23       0.028200
     38 HAO2        27.4960    47.2340    11.3330 hc         1 H23       0.028200
     39 HAP1        29.2630    45.7270    10.3730 hc         1 H23       0.009700
     40 HAP2        28.0650    44.4470    10.1770 hc         1 H23       0.009700
     41 HAQ1        26.7630    45.9060     8.6110 hc         1 H23       0.045700
     42 HAQ2        27.9570    47.1870     8.8050 hc         1 H23       0.045700
     43 HAR1        29.7290    45.6480     7.8860 hc         1 H23       0.012700
     44 HAR2        28.5320    44.3960     7.6510 hc         1 H23       0.012700
     45 HOAD        27.7520    47.9120     6.2230 ho         1 H23       0.415000
@<TRIPOS>BOND
     1     1     2 1   
     2     1    22 1   
     3     1    23 1   
     4     1    24 1   
     5     2     3 1   
     6     2    25 1   
     7     2    26 1   
     8     3     4 1   
     9     3    27 1   
    10     3    28 1   
    11     4     5 1   
    12     4    29 1   
    13     4    30 1   
    14     5     6 1   
    15     5    31 1   
    16     5    32 1   
    17     6     7 1   
    18     6    33 1   
    19     6    34 1   
    20     7     8 1   
    21     7    35 1   
    22     7    36 1   
    23     8     9 1   
    24     8    37 1   
    25     8    38 1   
    26     9    10 1   
    27     9    39 1   
    28     9    40 1   
    29    10    11 1   
    30    10    41 1   
    31    10    42 1   
    32    11    12 1   
    33    11    43 1   
    34    11    44 1   
    35    12    13 1   
    36    12    17 1   
    37    12    21 1   
    38    13    14 1   
    39    13    15 1   
    40    13    16 1   
    41    17    18 1   
    42    17    19 1   
    43    17    20 1   
    44    21    45 1   
@<TRIPOS>SUBSTRUCTURE
     1 H23         1 TEMP              0 ****  ****    0 ROOT
