@<TRIPOS>MOLECULE
H23
   45    44     1     0     0
SMALL
abcg2


@<TRIPOS>ATOM
      1 CAA         30.4410    45.2330    19.1410 c3         1 H23      -0.085100
      2 CAI         30.2320    45.7040    17.7040 c3         1 H23      -0.079400
      3 CAJ         28.8440    45.3710    17.1610 c3         1 H23      -0.074400
      4 CAK         28.6150    45.8530    15.7310 c3         1 H23      -0.078400
      5 CAL         27.2220    45.5140    15.2000 c3         1 H23      -0.067400
      6 CAM         26.9120    46.0820    13.8130 c3         1 H23      -0.077400
      7 CAN         27.7640    45.5080    12.6820 c3         1 H23      -0.079400
      8 CAO         27.3660    46.0370    11.3050 c3         1 H23      -0.079400
      9 CAP         28.1730    45.4390    10.1560 c3         1 H23      -0.069400
     10 CAQ         27.7810    45.9880     8.7840 c3         1 H23      -0.077400
     11 CAR         28.5700    45.3350     7.6510 c3         1 H23      -0.017400
     12 CAS         28.3750    45.8980     6.2280 c3         1 H23      -0.433000
     13 PAT         29.6110    45.0270     5.0880 p5         1 H23       1.359000
     14 OAE         29.0960    43.5850     4.9360 o          1 H23      -0.967667
     15 OAF         29.6890    45.7850     3.7550 o          1 H23      -0.967667
     16 OAB         30.9600    45.0840     5.8350 o          1 H23      -0.967667
     17 PAU         26.5350    45.8700     5.7360 p5         1 H23       1.359000
     18 OAG         26.3770    45.8020     4.2150 o          1 H23      -0.967667
     19 OAH         25.8720    44.6840     6.4450 o          1 H23      -0.967667
     20 OAC         26.0770    47.2470     6.2870 o          1 H23      -0.967667
     21 OAD         28.7340    47.3200     6.2570 oh         1 H23      -0.730000
     22 HAA1        30.3150    44.1500    19.2200 hc         1 H23       0.019367
     23 HAA2        31.4410    45.4800    19.5040 hc         1 H23       0.019367
     24 HAA3        29.7160    45.7000    19.8140 hc         1 H23       0.019367
     25 HAI1        30.3890    46.7870    17.6470 hc         1 H23       0.040700
     26 HAI2        30.9900    45.2510    17.0560 hc         1 H23       0.040700
     27 HAJ1        28.6910    44.2860    17.2070 hc         1 H23       0.024700
     28 HAJ2        28.0860    45.8140    17.8170 hc         1 H23       0.024700
     29 HAK1        28.7590    46.9390    15.6890 hc         1 H23       0.046700
     30 HAK2        29.3790    45.4170    15.0800 hc         1 H23       0.046700
     31 HAL1        27.1000    44.4250    15.1790 hc         1 H23       0.016200
     32 HAL2        26.4780    45.8910    15.9100 hc         1 H23       0.016200
     33 HAM1        25.8580    45.8950    13.5830 hc         1 H23       0.032200
     34 HAM2        27.0300    47.1720    13.8360 hc         1 H23       0.032200
     35 HAN1        28.8210    45.7320    12.8570 hc         1 H23       0.023200
     36 HAN2        27.6770    44.4150    12.6880 hc         1 H23       0.023200
     37 HAO1        26.3010    45.8370    11.1380 hc         1 H23       0.028200
     38 HAO2        27.4760    47.1280    11.2940 hc         1 H23       0.028200
     39 HAP1        29.2400    45.6200    10.3310 hc         1 H23       0.009700
     40 HAP2        28.0450    44.3490    10.1610 hc         1 H23       0.009700
     41 HAQ1        26.7130    45.8370     8.6230 hc         1 H23       0.045700
     42 HAQ2        27.9500    47.0690     8.7730 hc         1 H23       0.045700
     43 HAR1        29.6370    45.4230     7.8800 hc         1 H23       0.012700
     44 HAR2        28.3430    44.2670     7.6320 hc         1 H23       0.012700
     45 HOAD        27.8550    47.7390     6.3730 ho         1 H23       0.415000
@<TRIPOS>BOND
     1     1     2 1   
     2     1    22 1   
     3     1    23 1   
     4     1    24 1   
     5     2     3 1   
     6     2    25 1   
     7     2    26 1   
     8     3     4 1   
     9     3    27 1   
    10     3    28 1   
    11     4     5 1   
    12     4    29 1   
    13     4    30 1   
    14     5     6 1   
    15     5    31 1   
    16     5    32 1   
    17     6     7 1   
    18     6    33 1   
    19     6    34 1   
    20     7     8 1   
    21     7    35 1   
    22     7    36 1   
    23     8     9 1   
    24     8    37 1   
    25     8    38 1   
    26     9    10 1   
    27     9    39 1   
    28     9    40 1   
    29    10    11 1   
    30    10    41 1   
    31    10    42 1   
    32    11    12 1   
    33    11    43 1   
    34    11    44 1   
    35    12    13 1   
    36    12    17 1   
    37    12    21 1   
    38    13    14 1   
    39    13    15 1   
    40    13    16 1   
    41    17    18 1   
    42    17    19 1   
    43    17    20 1   
    44    21    45 1   
@<TRIPOS>SUBSTRUCTURE
     1 H23         1 TEMP              0 ****  ****    0 ROOT
