@<TRIPOS>MOLECULE
H24
   45    47     1     0     0
SMALL
No Charge or Current Charge


@<TRIPOS>ATOM
      1 C1          71.6220    46.8110     0.7370 c3         1 H24       0.149900
      2 O2          71.2990    47.4910     1.9630 os         1 H24      -0.342100
      3 C3          71.8720    47.1450     3.1700 ca         1 H24       0.139100
      4 C4          72.8160    46.1040     3.2910 ca         1 H24      -0.197000
      5 C5          73.3670    45.8020     4.5470 ca         1 H24      -0.075000
      6 C6          72.9810    46.5350     5.6800 ca         1 H24      -0.139000
      7 C7          72.0340    47.5850     5.5870 cp         1 H24       0.003000
      8 C8          71.4910    47.8720     4.3090 ca         1 H24      -0.136000
      9 C9          71.6210    48.3650     6.7980 cp         1 H24      -0.041000
     10 C10         72.5510    48.6650     7.8220 ca         1 H24      -0.095000
     11 C11         72.1640    49.4010     8.9510 ca         1 H24      -0.113000
     12 C12         70.8400    49.8440     9.0860 ca         1 H24      -0.100000
     13 C13         69.8750    49.5570     8.0940 ca         1 H24      -0.095300
     14 C14         68.4120    50.0540     8.2780 c6         1 H24       0.220500
     15 C15         68.3990    51.6080     8.2270 c3         1 H24      -0.066100
     16 C18         67.8280    49.5650     9.6190 c6         1 H24      -0.183400
     17 C19         67.5730    48.0670     9.5460 c          1 H24       0.577000
     18 O20         67.7780    47.3520    10.5180 o          1 H24      -0.528000
     19 N21         67.1390    47.5540     8.3140 n          1 H24      -0.385300
     20 C22         66.9460    46.0860     8.1770 c3         1 H24       0.083300
     21 C23         66.9810    48.4480     7.2530 c2         1 H24       0.685800
     22 N24         66.1220    48.0550     6.2940 nv         1 H24      -1.023200
     23 N25         67.5160    49.6000     7.1990 n2         1 H24      -0.716900
     24 C26         70.2880    48.8230     6.9540 ca         1 H24      -0.077000
     25 H1C1        71.0560    47.2430    -0.0980 h1         1 H24       0.040033
     26 H1C2        72.6910    46.9050     0.5080 h1         1 H24       0.040033
     27 H1C3        71.3680    45.7450     0.8040 h1         1 H24       0.040033
     28 H4          73.1320    45.5220     2.4300 ha         1 H24       0.115000
     29 H8          70.7740    48.6790     4.1950 ha         1 H24       0.131000
     30 H5          74.0930    44.9970     4.6430 ha         1 H24       0.110000
     31 H6          73.4100    46.2750     6.6450 ha         1 H24       0.117000
     32 H10         73.5850    48.3420     7.7320 ha         1 H24       0.115000
     33 H26         69.5740    48.5860     6.1720 ha         1 H24       0.131000
     34 H11         72.8950    49.6310     9.7240 ha         1 H24       0.113000
     35 H12         70.5710    50.4180     9.9690 ha         1 H24       0.110000
     36 H151        68.9870    52.0440     9.0430 hc         1 H24       0.043367
     37 H152        68.8210    51.9760     7.2840 hc         1 H24       0.043367
     38 H153        67.3800    52.0070     8.3110 hc         1 H24       0.043367
     39 H181        68.4210    49.8210    10.5050 hc         1 H24       0.081200
     40 H182        66.8400    50.0320     9.7270 hc         1 H24       0.081200
     41 H221        67.0700    45.7760     7.1320 h1         1 H24       0.051033
     42 H222        67.6880    45.5430     8.7760 h1         1 H24       0.051033
     43 H223        65.9400    45.8120     8.5190 h1         1 H24       0.051033
     44 H241        65.3460    47.5150     6.6520 hn         1 H24       0.474500
     45 H242        65.8520    48.8260     5.6960 hn         1 H24       0.474500
@<TRIPOS>BOND
     1     1     2 1   
     2     1    25 1   
     3     1    26 1   
     4     1    27 1   
     5     2     3 1   
     6     3     4 ar  
     7     3     8 ar  
     8     4     5 ar  
     9     4    28 1   
    10     5     6 ar  
    11     5    30 1   
    12     6     7 ar  
    13     6    31 1   
    14     7     8 ar  
    15     7     9 1   
    16     8    29 1   
    17     9    10 ar  
    18     9    24 ar  
    19    10    11 ar  
    20    10    32 1   
    21    11    12 ar  
    22    11    34 1   
    23    12    13 ar  
    24    12    35 1   
    25    13    14 1   
    26    13    24 ar  
    27    14    15 1   
    28    14    16 1   
    29    14    23 1   
    30    15    36 1   
    31    15    37 1   
    32    15    38 1   
    33    16    17 1   
    34    16    39 1   
    35    16    40 1   
    36    17    18 2   
    37    17    19 1   
    38    19    20 1   
    39    19    21 1   
    40    20    41 1   
    41    20    42 1   
    42    20    43 1   
    43    21    22 1   
    44    21    23 2   
    45    22    44 1   
    46    22    45 1   
    47    24    33 1   
@<TRIPOS>SUBSTRUCTURE
     1 H24         1 TEMP              0 ****  ****    0 ROOT
