@<TRIPOS>MOLECULE
H24
   45    47     1     0     0
SMALL
abcg2


@<TRIPOS>ATOM
      1 C1          71.7860    47.1750     0.7750 c3         1 H24       0.149900
      2 O2          71.4000    47.7870     1.9900 os         1 H24      -0.342100
      3 C3          71.8840    47.2880     3.1430 ca         1 H24       0.139100
      4 C4          72.7230    46.1800     3.2300 ca         1 H24      -0.197000
      5 C5          73.1670    45.7640     4.4800 ca         1 H24      -0.075000
      6 C6          72.7920    46.4280     5.6340 ca         1 H24      -0.139000
      7 C7          71.9470    47.5400     5.5540 cp         1 H24       0.003000
      8 C8          71.5020    47.9590     4.3060 ca         1 H24      -0.136000
      9 C9          71.5340    48.2630     6.7750 cp         1 H24      -0.041000
     10 C10         72.4310    48.4560     7.8240 ca         1 H24      -0.095000
     11 C11         72.0340    49.1500     8.9570 ca         1 H24      -0.113000
     12 C12         70.7440    49.6490     9.0590 ca         1 H24      -0.100000
     13 C13         69.8230    49.4550     8.0310 ca         1 H24      -0.095300
     14 C14         68.4110    50.0390     8.1310 c6         1 H24       0.220500
     15 C15         68.4970    51.5490     7.9070 c3         1 H24      -0.066100
     16 C18         67.7980    49.7510     9.5020 c6         1 H24      -0.183400
     17 C19         67.5890    48.2770     9.6850 c          1 H24       0.577000
     18 O20         67.6940    47.7070    10.7520 o          1 H24      -0.528000
     19 N21         67.2390    47.6090     8.5380 n          1 H24      -0.385300
     20 C22         66.9960    46.1740     8.5930 c3         1 H24       0.083300
     21 C23         67.0390    48.3320     7.3530 c2         1 H24       0.685800
     22 N24         66.3170    47.6780     6.4020 nv         1 H24      -1.023200
     23 N25         67.5330    49.4850     7.1210 n2         1 H24      -0.716900
     24 C26         70.2380    48.7670     6.8960 ca         1 H24      -0.077000
     25 H1C1        71.3110    47.7420    -0.0210 h1         1 H24       0.040033
     26 H1C2        72.8690    47.2040     0.6300 h1         1 H24       0.040033
     27 H1C3        71.4510    46.1360     0.7150 h1         1 H24       0.040033
     28 H4          73.0370    45.6340     2.3500 ha         1 H24       0.115000
     29 H8          70.8650    48.8310     4.2160 ha         1 H24       0.131000
     30 H5          73.8130    44.8990     4.5460 ha         1 H24       0.110000
     31 H6          73.1330    46.0720     6.5970 ha         1 H24       0.117000
     32 H10         73.4460    48.0870     7.7500 ha         1 H24       0.115000
     33 H26         69.5360    48.6070     6.0890 ha         1 H24       0.131000
     34 H11         72.7380    49.3110     9.7630 ha         1 H24       0.113000
     35 H12         70.4640    50.1960     9.9510 ha         1 H24       0.110000
     36 H151        69.1470    52.0240     8.6420 hc         1 H24       0.043367
     37 H152        68.8940    51.7610     6.9140 hc         1 H24       0.043367
     38 H153        67.5070    52.0010     7.9840 hc         1 H24       0.043367
     39 H181        68.3820    50.1340    10.3380 hc         1 H24       0.081200
     40 H182        66.8190    50.2430     9.5560 hc         1 H24       0.081200
     41 H221        67.2820    45.7170     7.6500 h1         1 H24       0.051033
     42 H222        67.6000    45.7400     9.3830 h1         1 H24       0.051033
     43 H223        65.9490    45.9470     8.7970 h1         1 H24       0.051033
     44 H241        65.5490    47.0970     6.6990 hn         1 H24       0.474500
     45 H242        66.1020    48.2400     5.5940 hn         1 H24       0.474500
@<TRIPOS>BOND
     1     1     2 1   
     2     1    25 1   
     3     1    26 1   
     4     1    27 1   
     5     2     3 1   
     6     3     4 ar  
     7     3     8 ar  
     8     4     5 ar  
     9     4    28 1   
    10     5     6 ar  
    11     5    30 1   
    12     6     7 ar  
    13     6    31 1   
    14     7     8 ar  
    15     7     9 1   
    16     8    29 1   
    17     9    10 ar  
    18     9    24 ar  
    19    10    11 ar  
    20    10    32 1   
    21    11    12 ar  
    22    11    34 1   
    23    12    13 ar  
    24    12    35 1   
    25    13    14 1   
    26    13    24 ar  
    27    14    15 1   
    28    14    16 1   
    29    14    23 1   
    30    15    36 1   
    31    15    37 1   
    32    15    38 1   
    33    16    17 1   
    34    16    39 1   
    35    16    40 1   
    36    17    18 2   
    37    17    19 1   
    38    19    20 1   
    39    19    21 1   
    40    20    41 1   
    41    20    42 1   
    42    20    43 1   
    43    21    22 1   
    44    21    23 2   
    45    22    44 1   
    46    22    45 1   
    47    24    33 1   
@<TRIPOS>SUBSTRUCTURE
     1 H24         1 TEMP              0 ****  ****    0 ROOT
