@<TRIPOS>MOLECULE
H25
   53    56     1     0     0
SMALL
No Charge or Current Charge


@<TRIPOS>ATOM
      1 F3           9.6690    62.8470     1.6730 f          1 H25      -0.158000
      2 C17          8.9170    62.3040     2.6580 ca         1 H25       0.186000
      3 C11          8.8890    60.9070     2.7920 ca         1 H25      -0.118000
      4 C9           8.1540    60.2890     3.8280 ca         1 H25       0.040600
      5 N1           8.2150    58.8510     4.0150 n          1 H25      -0.202200
      6 C21          8.2820    58.3390     5.3210 cc         1 H25      -0.025400
      7 C29          8.2330    56.9890     5.6050 cd         1 H25      -0.299000
      8 C30          8.1200    56.0410     4.5370 cd         1 H25      -0.086000
      9 C23          8.0510    56.5330     3.2540 cc         1 H25      -0.317200
     10 C8           8.0740    57.9630     2.9140 c          1 H25       0.555200
     11 O25          7.9510    58.3360     1.7550 o          1 H25      -0.534000
     12 C26          7.5370    61.1240     4.7880 ca         1 H25      -0.111000
     13 C28          7.5690    62.5230     4.6610 ca         1 H25      -0.105000
     14 C16          8.2340    63.1250     3.5800 ca         1 H25      -0.068000
     15 N15          8.2620    64.5410     3.5040 ns         1 H25      -0.161000
     16 C14          8.1240    65.3930     2.4190 c          1 H25       0.604100
     17 O27          7.7650    65.0250     1.3030 o          1 H25      -0.566100
     18 C22          8.4900    66.8600     2.7560 c3         1 H25       0.086800
     19 N4           9.8580    67.0340     3.3290 n3         1 H25      -0.757600
     20 C31         10.1940    68.3360     3.9540 c5         1 H25       0.167800
     21 C34         11.7220    68.1780     4.3080 c5         1 H25       0.158300
     22 O33         12.4540    69.3810     4.0360 oh         1 H25      -0.644000
     23 C20         10.9940    66.8140     2.4010 c5         1 H25       0.142800
     24 C6          12.1920    66.9890     3.3830 c5         1 H25       0.067700
     25 N7          12.1410    65.7690     4.2230 ns         1 H25      -0.491900
     26 C5          12.6820    64.6130     3.7060 c          1 H25       0.639700
     27 O24         13.4780    64.6080     2.7780 o          1 H25      -0.601100
     28 C2          12.1980    63.3850     4.3570 cc         1 H25      -0.310600
     29 C12         11.2770    63.2880     5.3820 cd         1 H25      -0.095000
     30 C19         10.9940    61.9430     5.7470 cd         1 H25      -0.135000
     31 S3          12.7380    61.7990     3.8170 ss         1 H25       0.373000
     32 C10         11.6930    61.0260     5.0050 cc         1 H25      -0.045000
     33 Cl1         11.6050    59.3010     5.1810 cl         1 H25      -0.134000
     34 H11          9.4670    60.3110     2.0930 ha         1 H25       0.149000
     35 H26          6.9900    60.6960     5.6240 ha         1 H25       0.129000
     36 H21          8.4190    59.1050     6.0760 h4         1 H25       0.202000
     37 H29          8.2990    56.6470     6.6360 ha         1 H25       0.200000
     38 H30          8.0890    54.9700     4.7330 ha         1 H25       0.186000
     39 H23          7.9530    55.8670     2.4030 ha         1 H25       0.210000
     40 H28          7.0660    63.1410     5.4030 ha         1 H25       0.123000
     41 H15          8.5140    65.0070     4.3670 hn         1 H25       0.181000
     42 H221         8.3700    67.4580     1.8420 h1         1 H25       0.070200
     43 H222         7.7390    67.2060     3.4770 h1         1 H25       0.070200
     44 H201        10.9760    65.8220     1.9280 h1         1 H25       0.064200
     45 H202        11.0200    67.5680     1.6010 h1         1 H25       0.064200
     46 H311        10.0330    69.1670     3.2510 h1         1 H25       0.058700
     47 H312         9.5890    68.5310     4.8500 h1         1 H25       0.058700
     48 H6          13.1560    67.1570     2.8840 h1         1 H25       0.093700
     49 H34         11.8370    67.9120     5.3680 h1         1 H25       0.035700
     50 H33         13.3560    69.2560     4.4080 ho         1 H25       0.454000
     51 H7          11.4550    65.6520     4.9540 hn         1 H25       0.317500
     52 H12         10.7990    64.1350     5.8660 ha         1 H25       0.128000
     53 H19         10.2930    61.6680     6.5290 ha         1 H25       0.148000
@<TRIPOS>BOND
     1     1     2 1   
     2     2     3 ar  
     3     2    14 ar  
     4     3     4 ar  
     5     3    34 1   
     6     4     5 1   
     7     4    12 ar  
     8     5     6 1   
     9     5    10 1   
    10     6     7 2   
    11     6    36 1   
    12     7     8 1   
    13     7    37 1   
    14     8     9 2   
    15     8    38 1   
    16     9    10 1   
    17     9    39 1   
    18    10    11 2   
    19    12    13 ar  
    20    12    35 1   
    21    13    14 ar  
    22    13    40 1   
    23    14    15 1   
    24    15    16 1   
    25    15    41 1   
    26    16    17 2   
    27    16    18 1   
    28    18    19 1   
    29    18    42 1   
    30    18    43 1   
    31    19    20 1   
    32    19    23 1   
    33    20    21 1   
    34    20    46 1   
    35    20    47 1   
    36    21    22 1   
    37    21    24 1   
    38    21    49 1   
    39    22    50 1   
    40    23    24 1   
    41    23    44 1   
    42    23    45 1   
    43    24    25 1   
    44    24    48 1   
    45    25    26 1   
    46    25    51 1   
    47    26    27 2   
    48    26    28 1   
    49    28    29 2   
    50    28    31 1   
    51    29    30 1   
    52    29    52 1   
    53    30    32 2   
    54    30    53 1   
    55    31    32 1   
    56    32    33 1   
@<TRIPOS>SUBSTRUCTURE
     1 H25         1 TEMP              0 ****  ****    0 ROOT
