@<TRIPOS>MOLECULE
H25
   53    56     1     0     0
SMALL
bcc


@<TRIPOS>ATOM
      1 F3           9.4750    62.2090     1.2930 f          1 H25      -0.122900
      2 C17          8.6030    61.8300     2.2310 ca         1 H25       0.150900
      3 C11          8.2900    60.4930     2.3430 ca         1 H25      -0.136000
      4 C9           7.4330    60.0950     3.3580 ca         1 H25       0.040600
      5 N1           7.1230    58.7120     3.5160 n          1 H25      -0.269200
      6 C21          7.6620    58.0420     4.5740 cc         1 H25       0.024600
      7 C29          7.3890    56.7350     4.7980 cd         1 H25      -0.249000
      8 C30          6.5200    56.0730     3.8980 cd         1 H25      -0.036000
      9 C23          5.9770    56.7340     2.8430 cc         1 H25      -0.267200
     10 C8           6.2530    58.1240     2.5940 c          1 H25       0.697700
     11 O25          5.7900    58.7860     1.6740 o          1 H25      -0.609500
     12 C26          6.9010    61.0210     4.2390 ca         1 H25      -0.129000
     13 C28          7.2180    62.3630     4.0940 ca         1 H25      -0.123000
     14 C16          8.0700    62.7910     3.0850 ca         1 H25       0.024600
     15 N15          8.4090    64.1420     2.9560 ns         1 H25      -0.487100
     16 C14          8.1920    64.8720     1.8380 c          1 H25       0.671100
     17 O27          7.6850    64.4290     0.8250 o          1 H25      -0.566100
     18 C22          8.5850    66.3330     1.9780 c3         1 H25       0.086800
     19 N4           9.5340    66.5560     3.0340 n3         1 H25      -0.757600
     20 C31          9.5840    67.9030     3.5650 c5         1 H25       0.167800
     21 C34         10.7480    67.8130     4.5370 c5         1 H25       0.135100
     22 O33         11.2380    69.0870     4.8460 oh         1 H25      -0.581800
     23 C20         10.9110    66.2230     2.6950 c5         1 H25       0.142800
     24 C6          11.7460    66.8880     3.8040 c5         1 H25       0.067700
     25 N7          12.3710    65.9640     4.7240 ns         1 H25      -0.558900
     26 C5          13.4930    65.2990     4.4160 c          1 H25       0.706700
     27 O24         14.0840    65.4250     3.3500 o          1 H25      -0.601100
     28 C2          14.0210    64.3800     5.4410 cc         1 H25      -0.165700
     29 C12         13.6150    64.0930     6.7130 cd         1 H25      -0.113000
     30 C19         14.4360    63.1350     7.3540 cd         1 H25      -0.153000
     31 S3          15.4260    63.4850     5.0020 ss         1 H25       0.083200
     32 C10         15.4490    62.7260     6.5390 cc         1 H25       0.008300
     33 CL1         16.6590    61.5870     6.9200 cl         1 H25      -0.042400
     34 H11          8.7350    59.7740     1.6670 ha         1 H25       0.167000
     35 H26          6.2350    60.7030     5.0300 ha         1 H25       0.147000
     36 H21          8.3180    58.6190     5.2100 h4         1 H25       0.152000
     37 H29          7.8330    56.2270     5.6390 ha         1 H25       0.150000
     38 H30          6.2850    55.0290     4.0550 ha         1 H25       0.136000
     39 H23          5.3090    56.2360     2.1550 ha         1 H25       0.160000
     40 H28          6.7950    63.0930     4.7710 ha         1 H25       0.141000
     41 H15          8.7540    64.6510     3.7610 hn         1 H25       0.347500
     42 H221         8.9330    66.6870     0.9970 h1         1 H25       0.070200
     43 H222         7.6640    66.8790     2.2010 h1         1 H25       0.070200
     44 H201        11.0610    65.1430     2.6430 h1         1 H25       0.064200
     45 H202        11.1930    66.6420     1.7180 h1         1 H25       0.064200
     46 H311         9.7960    68.6590     2.7920 h1         1 H25       0.058700
     47 H312         8.6440    68.1700     4.0520 h1         1 H25       0.058700
     48 H6          12.5280    67.4980     3.3500 h1         1 H25       0.093700
     49 H34         10.3930    67.2970     5.4410 h1         1 H25       0.035700
     50 H33         11.8730    69.0080     5.5630 ho         1 H25       0.415000
     51 H7          11.8910    65.7500     5.5840 hn         1 H25       0.317500
     52 H12         12.7610    64.5430     7.1990 ha         1 H25       0.146000
     53 H19         14.2850    62.7740     8.3590 ha         1 H25       0.166000
@<TRIPOS>BOND
     1     1     2 1   
     2     2     3 ar  
     3     2    14 ar  
     4     3     4 ar  
     5     3    34 1   
     6     4     5 1   
     7     4    12 ar  
     8     5     6 1   
     9     5    10 1   
    10     6     7 2   
    11     6    36 1   
    12     7     8 1   
    13     7    37 1   
    14     8     9 2   
    15     8    38 1   
    16     9    10 1   
    17     9    39 1   
    18    10    11 2   
    19    12    13 ar  
    20    12    35 1   
    21    13    14 ar  
    22    13    40 1   
    23    14    15 1   
    24    15    16 1   
    25    15    41 1   
    26    16    17 2   
    27    16    18 1   
    28    18    19 1   
    29    18    42 1   
    30    18    43 1   
    31    19    20 1   
    32    19    23 1   
    33    20    21 1   
    34    20    46 1   
    35    20    47 1   
    36    21    22 1   
    37    21    24 1   
    38    21    49 1   
    39    22    50 1   
    40    23    24 1   
    41    23    44 1   
    42    23    45 1   
    43    24    25 1   
    44    24    48 1   
    45    25    26 1   
    46    25    51 1   
    47    26    27 2   
    48    26    28 1   
    49    28    29 2   
    50    28    31 1   
    51    29    30 1   
    52    29    52 1   
    53    30    32 2   
    54    30    53 1   
    55    31    32 1   
    56    32    33 1   
@<TRIPOS>SUBSTRUCTURE
     1 H25         1 TEMP              0 ****  ****    0 ROOT
