@<TRIPOS>MOLECULE
H28
   49    54     1     0     0
SMALL
abcg2


@<TRIPOS>ATOM
      1 C4          -3.9790     9.0070    -1.2040 ca         1 H28      -0.117000
      2 C5          -5.2730     9.4360    -0.9390 ca         1 H28      -0.069000
      3 C6          -5.7500    10.6490    -1.4380 ca         1 H28      -0.112300
      4 C7          -7.1190    11.1930    -1.1310 c5         1 H28       0.021600
      5 C15         -9.3210    10.8900    -0.1760 c5         1 H28       0.085200
      6 C20        -11.0210    14.2340     2.4250 cx         1 H28      -0.122400
      7 C21        -10.9000    14.3920     0.9300 cx         1 H28      -0.122400
      8 C22         -7.2460    11.9620     0.2180 c5         1 H28       0.186500
      9 C26         -5.4190    13.1260     1.1610 ca         1 H28      -0.017000
     10 C28         -4.6630    15.2910     0.6010 ca         1 H28       0.162000
     11 C2          -3.5830    10.9840    -2.4940 ca         1 H28       0.074000
     12 C3          -3.1250     9.7800    -1.9800 ca         1 H28      -0.070000
     13 C9          -8.2810    10.1780    -1.0410 c5         1 H28      -0.194700
     14 C11         -8.9900     9.9950    -2.3730 c          1 H28       0.674500
     15 O12         -8.6030     9.3600    -3.3210 o          1 H28      -0.464100
     16 N13        -10.2250    10.7250    -2.3720 ne         1 H28      -0.608100
     17 C14        -10.3920    11.2090    -1.1970 c2         1 H28       0.475200
     18 N17         -8.6870    12.1030     0.3500 n3         1 H28      -0.725600
     19 C18         -9.1760    12.5870     1.6400 c3         1 H28       0.211800
     20 C19        -10.6010    13.0680     1.5730 cx         1 H28      -0.137700
     21 C23         -6.5680    11.1550     1.3740 c          1 H28       0.536000
     22 O24         -6.9290    10.0790     1.8120 o          1 H28      -0.529000
     23 N25         -5.4980    11.8850     1.8010 ns         1 H28      -0.142000
     24 C27         -4.4930    14.1340     1.3600 ca         1 H28      -0.141000
     25 CL9         -3.5140    16.5950     0.8100 cl         1 H28      -0.200000
     26 C30         -5.7030    15.4500    -0.3060 ca         1 H28      -0.132000
     27 C31         -6.6140    14.4070    -0.4870 ca         1 H28      -0.022000
     28 C32         -6.4640    13.2480     0.2420 ca         1 H28      -0.143300
     29 C33         -4.8800    11.4010    -2.2220 ca         1 H28       0.191000
     30 F34         -5.3000    12.5700    -2.7430 f          1 H28      -0.162000
     31 H1          -3.6310     8.0650    -0.8030 ha         1 H28       0.127000
     32 H2          -5.9170     8.8220    -0.3280 ha         1 H28       0.132000
     33 H3          -7.3740    11.9320    -1.8900 hc         1 H28       0.091700
     34 H4          -9.7250    10.2500     0.6170 h1         1 H28       0.085700
     35 H6         -12.0110    14.2170     2.8590 hc         1 H28       0.074450
     36 H7         -10.0570    14.9550     0.5490 hc         1 H28       0.074450
     37 H8         -11.8080    14.4880     0.3510 hc         1 H28       0.074450
     38 H9          -2.1150     9.4570    -2.1920 ha         1 H28       0.134000
     39 H10         -7.9670     9.2200    -0.6400 hc         1 H28       0.108700
     40 H11        -11.2510    11.8300    -0.9640 h4         1 H28       0.046800
     41 H13         -9.0850    11.8070     2.4100 h1         1 H28       0.048700
     42 H14         -8.5330    13.4190     1.9370 h1         1 H28       0.048700
     43 H15        -11.3440    12.2900     1.4420 hc         1 H28       0.074700
     44 H16         -4.8900    11.5880     2.5510 hn         1 H28       0.177000
     45 H17         -3.6820    14.0370     2.0680 ha         1 H28       0.140000
     46 H18         -5.7980    16.3690    -0.8660 ha         1 H28       0.138000
     47 H19         -7.4270    14.5120    -1.1940 ha         1 H28       0.136000
     48 CL1         -2.5490    11.9800    -3.4740 cl         1 H28      -0.172000
     49 H5         -10.2630    14.6990     3.0430 hc         1 H28       0.074450
@<TRIPOS>BOND
     1     1     2 ar  
     2     1    12 ar  
     3     1    31 1   
     4     2     3 ar  
     5     2    32 1   
     6     3     4 1   
     7     3    29 ar  
     8     4     8 1   
     9     4    13 1   
    10     4    33 1   
    11     5    13 1   
    12     5    17 1   
    13     5    18 1   
    14     5    34 1   
    15     6     7 1   
    16     6    20 1   
    17     6    35 1   
    18     6    49 1   
    19     7    20 1   
    20     7    36 1   
    21     7    37 1   
    22     8    18 1   
    23     8    21 1   
    24     8    28 1   
    25     9    23 1   
    26     9    24 ar  
    27     9    28 ar  
    28    10    24 ar  
    29    10    25 1   
    30    10    26 ar  
    31    11    12 ar  
    32    11    29 ar  
    33    11    48 1   
    34    12    38 1   
    35    13    14 1   
    36    13    39 1   
    37    14    15 2   
    38    14    16 1   
    39    16    17 2   
    40    17    40 1   
    41    18    19 1   
    42    19    20 1   
    43    19    41 1   
    44    19    42 1   
    45    20    43 1   
    46    21    22 2   
    47    21    23 1   
    48    23    44 1   
    49    24    45 1   
    50    26    27 ar  
    51    26    46 1   
    52    27    28 ar  
    53    27    47 1   
    54    29    30 1   
@<TRIPOS>SUBSTRUCTURE
     1 H28         1 TEMP              0 ****  ****    0 ROOT
