@<TRIPOS>MOLECULE
H28
   49    54     1     0     0
SMALL
No Charge or Current Charge


@<TRIPOS>ATOM
      1 C4          -3.9820     8.9910    -1.2620 ca         1 H28      -0.117000
      2 C5          -5.2780     9.4510    -0.9720 ca         1 H28      -0.069000
      3 C6          -5.7410    10.7000    -1.4620 ca         1 H28      -0.112300
      4 C7          -7.1510    11.2750    -1.1620 c5         1 H28       0.021600
      5 C15         -9.3350    10.8720    -0.1360 c5         1 H28       0.085200
      6 C20        -11.1160    14.3130     2.3850 cx         1 H28      -0.122400
      7 C21        -11.0600    14.3480     0.8760 cx         1 H28      -0.122400
      8 C22         -7.2120    11.8950     0.2690 c5         1 H28       0.186500
      9 C26         -5.3690    13.0820     1.1840 ca         1 H28      -0.017000
     10 C28         -4.6070    15.2960     0.6520 ca         1 H28       0.162000
     11 C2          -3.5460    11.0010    -2.5420 ca         1 H28       0.074000
     12 C3          -3.1140     9.7640    -2.0460 ca         1 H28      -0.070000
     13 C9          -8.2700    10.1840    -1.0440 c5         1 H28      -0.194700
     14 C11         -8.9940     9.9930    -2.3910 c          1 H28       0.674500
     15 O12         -8.7590     9.1440    -3.2350 o          1 H28      -0.464100
     16 N13        -10.1240    10.8020    -2.3680 ne         1 H28      -0.608100
     17 C14        -10.3740    11.2600    -1.1810 c2         1 H28       0.475200
     18 N17         -8.6800    12.1250     0.3770 n3         1 H28      -0.725600
     19 C18         -9.1740    12.6750     1.6600 c3         1 H28       0.211800
     20 C19        -10.6360    13.1010     1.6190 cx         1 H28      -0.137700
     21 C23         -6.5040    11.0210     1.4040 c          1 H28       0.536000
     22 O24         -6.7940     9.9340     1.8960 o          1 H28      -0.529000
     23 N25         -5.4590    11.8350     1.7950 ns         1 H28      -0.142000
     24 C27         -4.4490    14.1130     1.4010 ca         1 H28      -0.141000
     25 Cl9         -3.4820    16.6280     0.8800 cl         1 H28      -0.200000
     26 C30         -5.6680    15.4250    -0.2740 ca         1 H28      -0.132000
     27 C31         -6.5810    14.3660    -0.4680 ca         1 H28      -0.022000
     28 C32         -6.4010    13.1880     0.2740 ca         1 H28      -0.143300
     29 C33         -4.8450    11.4640    -2.2550 ca         1 H28       0.191000
     30 F34         -5.2330    12.6620    -2.7530 f          1 H28      -0.162000
     31 H1          -3.6480     8.0320    -0.8720 ha         1 H28       0.127000
     32 H2          -5.9010     8.8180    -0.3470 ha         1 H28       0.132000
     33 H3          -7.4490    12.0280    -1.9040 hc         1 H28       0.091700
     34 H4          -9.7320    10.2090     0.6470 h1         1 H28       0.085700
     35 H6         -12.0960    14.2610     2.8550 hc         1 H28       0.074450
     36 H7         -10.2820    14.9480     0.4090 hc         1 H28       0.074450
     37 H8         -12.0000    14.3180     0.3310 hc         1 H28       0.074450
     38 H9          -2.1110     9.4070    -2.2670 ha         1 H28       0.134000
     39 H10         -7.9420     9.2150    -0.6650 hc         1 H28       0.108700
     40 H11        -11.2340    11.8980    -0.9970 h4         1 H28       0.046800
     41 H13         -9.0460    11.9360     2.4630 h1         1 H28       0.048700
     42 H14         -8.5700    13.5510     1.9350 h1         1 H28       0.048700
     43 H15        -11.3160    12.2530     1.5820 hc         1 H28       0.074700
     44 H16         -4.8280    11.5650     2.5390 hn         1 H28       0.177000
     45 H17         -3.6430    14.0110     2.1230 ha         1 H28       0.140000
     46 H18         -5.7810    16.3460    -0.8390 ha         1 H28       0.138000
     47 H19         -7.4030    14.4590    -1.1760 ha         1 H28       0.136000
     48 Cl1         -2.4430    11.9650    -3.5250 cl         1 H28      -0.172000
     49 H5         -10.3810    14.9000     2.9320 hc         1 H28       0.074450
@<TRIPOS>BOND
     1     1     2 ar  
     2     1    12 ar  
     3     1    31 1   
     4     2     3 ar  
     5     2    32 1   
     6     3     4 1   
     7     3    29 ar  
     8     4     8 1   
     9     4    13 1   
    10     4    33 1   
    11     5    13 1   
    12     5    17 1   
    13     5    18 1   
    14     5    34 1   
    15     6     7 1   
    16     6    20 1   
    17     6    35 1   
    18     6    49 1   
    19     7    20 1   
    20     7    36 1   
    21     7    37 1   
    22     8    18 1   
    23     8    21 1   
    24     8    28 1   
    25     9    23 1   
    26     9    24 ar  
    27     9    28 ar  
    28    10    24 ar  
    29    10    25 1   
    30    10    26 ar  
    31    11    12 ar  
    32    11    29 ar  
    33    11    48 1   
    34    12    38 1   
    35    13    14 1   
    36    13    39 1   
    37    14    15 2   
    38    14    16 1   
    39    16    17 2   
    40    17    40 1   
    41    18    19 1   
    42    19    20 1   
    43    19    41 1   
    44    19    42 1   
    45    20    43 1   
    46    21    22 2   
    47    21    23 1   
    48    23    44 1   
    49    24    45 1   
    50    26    27 ar  
    51    26    46 1   
    52    27    28 ar  
    53    27    47 1   
    54    29    30 1   
@<TRIPOS>SUBSTRUCTURE
     1 H28         1 TEMP              0 ****  ****    0 ROOT
