@<TRIPOS>MOLECULE
H29
   29    31     1     0     0
SMALL
No Charge or Current Charge


@<TRIPOS>ATOM
      1 C1          -0.6600     4.9280   -11.2770 ca         1 H29       0.180000
      2 C2          -1.8290     4.5690   -12.0090 ca         1 H29       0.321900
      3 C4          -1.4860     7.1990   -11.3480 ca         1 H29      -0.171000
      4 C5          -3.2920     8.9590   -13.0830 c6         1 H29       0.215800
      5 C6          -4.3140    10.0390   -12.6410 c6         1 H29      -0.006100
      6 C7          -5.7190     9.5430   -12.8750 cc         1 H29      -0.203300
      7 C9          -4.9740     7.1080   -12.8890 c6         1 H29       0.279100
      8 C11         -8.1590     9.1200   -13.2540 cc         1 H29      -0.238000
      9 N           -2.7810     5.4520   -12.4010 nb         1 H29      -0.716000
     10 C           -0.4990     6.2820   -10.9420 ca         1 H29      -0.102000
     11 C10         -7.4070     7.9730   -13.2010 cd         1 H29      -0.120000
     12 C3          -2.6030     6.7480   -12.0810 ca         1 H29       0.567900
     13 C8          -6.0210     8.2100   -12.9850 cd         1 H29      -0.115300
     14 N1          -3.6210     7.6220   -12.5030 nh         1 H29      -0.765300
     15 N2           0.3030     4.0080   -10.8850 nv         1 H29      -1.050000
     16 S           -7.1530    10.5500   -13.0330 ss         1 H29       0.189000
     17 H1          -2.0030     3.5300   -12.2900 h4         1 H29       0.015100
     18 H2          -1.3910     8.2460   -11.0810 ha         1 H29       0.122000
     19 H4          -3.3010     8.8900   -14.1810 h1         1 H29       0.042200
     20 H5          -4.1650    10.2650   -11.5770 hc         1 H29       0.058700
     21 H6          -4.1250    10.9710   -13.1890 hc         1 H29       0.058700
     22 H7          -5.3180     6.3700   -12.1480 h1         1 H29       0.060200
     23 H8          -4.9140     6.5880   -13.8560 h1         1 H29       0.060200
     24 H9          -9.2250     9.2350   -13.4050 h4         1 H29       0.150000
     25 H10          0.3660     6.6190   -10.3760 ha         1 H29       0.115000
     26 H11         -7.8310     6.9790   -13.3140 ha         1 H29       0.135000
     27 H12          1.1280     4.3030   -10.3620 hn         1 H29       0.436500
     28 H13          0.2100     3.0180   -11.1170 hn         1 H29       0.436500
     29 H3          -2.2830     9.2890   -12.7980 h1         1 H29       0.042200
@<TRIPOS>BOND
     1     1     2 ar  
     2     1    10 ar  
     3     1    15 1   
     4     2     9 ar  
     5     2    17 1   
     6     3    10 ar  
     7     3    12 ar  
     8     3    18 1   
     9     4     5 1   
    10     4    14 1   
    11     4    19 1   
    12     4    29 1   
    13     5     6 1   
    14     5    20 1   
    15     5    21 1   
    16     6    13 2   
    17     6    16 1   
    18     7    13 1   
    19     7    14 1   
    20     7    22 1   
    21     7    23 1   
    22     8    11 2   
    23     8    16 1   
    24     8    24 1   
    25     9    12 ar  
    26    10    25 1   
    27    11    13 1   
    28    11    26 1   
    29    12    14 1   
    30    15    27 1   
    31    15    28 1   
@<TRIPOS>SUBSTRUCTURE
     1 H29         1 TEMP              0 ****  ****    0 ROOT
