@<TRIPOS>MOLECULE
H29
   29    31     1     0     0
SMALL
bcc


@<TRIPOS>ATOM
      1 C1          -0.6980     4.9530   -11.3510 ca         1 H29      -0.023700
      2 C2          -1.9380     4.6240   -11.8850 ca         1 H29       0.387200
      3 C4          -1.4200     7.2470   -11.5060 ca         1 H29      -0.254300
      4 C5          -3.3180     8.9910   -12.9720 c6         1 H29       0.215800
      5 C6          -4.3400    10.0370   -12.5430 c6         1 H29      -0.006100
      6 C7          -5.6980     9.4850   -12.8110 cc         1 H29      -0.058400
      7 C9          -4.8760     7.1200   -12.9180 c6         1 H29       0.279100
      8 C11         -8.0830     9.0250   -13.2720 cc         1 H29      -0.111100
      9 N           -2.8580     5.5160   -12.2410 nb         1 H29      -0.716000
     10 C           -0.4630     6.3200   -11.1620 ca         1 H29      -0.120000
     11 C10         -7.3260     7.8960   -13.2640 cd         1 H29      -0.138000
     12 C3          -2.6310     6.8100   -12.0680 ca         1 H29       0.633200
     13 C8          -5.9510     8.1610   -12.9940 cd         1 H29      -0.115300
     14 N1          -3.6490     7.6930   -12.4050 nh         1 H29      -0.765300
     15 N2           0.2670     3.9950   -11.0730 nv         1 H29      -0.801200
     16 S           -7.1340    10.4220   -12.9590 ss         1 H29      -0.100800
     17 H1          -2.1970     3.5810   -12.0430 h4         1 H29       0.015100
     18 H2          -1.2270     8.2940   -11.3140 ha         1 H29       0.140000
     19 H4          -3.2910     8.9360   -14.0690 h1         1 H29       0.042200
     20 H5          -4.2140    10.2700   -11.4820 hc         1 H29       0.058700
     21 H6          -4.1670    10.9620   -13.0950 hc         1 H29       0.058700
     22 H7          -5.1980     6.3120   -12.2590 h1         1 H29       0.060200
     23 H8          -4.7350     6.6630   -13.9090 h1         1 H29       0.060200
     24 H9          -9.1450     9.1120   -13.4420 h4         1 H29       0.168000
     25 H10          0.4720     6.6540   -10.7270 ha         1 H29       0.133000
     26 H11         -7.7290     6.9080   -13.4380 ha         1 H29       0.153000
     27 H12          0.9090     4.2520   -10.3390 hn         1 H29       0.381300
     28 H13         -0.1010     3.0700   -10.9070 hn         1 H29       0.381300
     29 H3          -2.3290     9.3030   -12.6500 h1         1 H29       0.042200
@<TRIPOS>BOND
     1     1     2 ar  
     2     1    10 ar  
     3     1    15 1   
     4     2     9 ar  
     5     2    17 1   
     6     3    10 ar  
     7     3    12 ar  
     8     3    18 1   
     9     4     5 1   
    10     4    14 1   
    11     4    19 1   
    12     4    29 1   
    13     5     6 1   
    14     5    20 1   
    15     5    21 1   
    16     6    13 2   
    17     6    16 1   
    18     7    13 1   
    19     7    14 1   
    20     7    22 1   
    21     7    23 1   
    22     8    11 2   
    23     8    16 1   
    24     8    24 1   
    25     9    12 ar  
    26    10    25 1   
    27    11    13 1   
    28    11    26 1   
    29    12    14 1   
    30    15    27 1   
    31    15    28 1   
@<TRIPOS>SUBSTRUCTURE
     1 H29         1 TEMP              0 ****  ****    0 ROOT
