@<TRIPOS>MOLECULE
H2A
   60    61     1     0     0
SMALL
abcg2


@<TRIPOS>ATOM
      1 S1           3.8810    -1.3380     4.0170 ss         1 H2A      -0.535000
      2 C2           4.0690    -1.0930     2.2200 c6         1 H2A       0.103600
      3 C3           2.8860    -1.5910     1.3910 c6         1 H2A      -0.078700
      4 C5           2.6350    -3.0830     1.5160 c3         1 H2A       0.163600
      5 C4           1.5980    -0.8220     1.7280 c6         1 H2A      -0.037300
      6 C9           1.6210     0.6400     1.1900 c          1 H2A       0.723000
      7 O4A          2.0020     0.7610     0.0130 o          1 H2A      -0.697000
      8 O4B          1.2380     1.5270     1.9680 o          1 H2A      -0.697000
      9 N5           1.3780    -0.8600     3.1470 nj         1 H2A      -0.360800
     10 C6           2.3050    -0.4490     4.1740 cy         1 H2A       0.242700
     11 C7           1.3220    -1.0650     5.2050 cy         1 H2A       0.021700
     12 C8           0.5690    -1.5670     3.9620 c          1 H2A       0.547000
     13 O9          -0.3590    -2.3150     3.7580 o          1 H2A      -0.565000
     14 N10          1.7930    -2.0330     6.1310 ns         1 H2A      -0.488900
     15 C11          1.3490    -2.1170     7.4110 c          1 H2A       0.613100
     16 O12          0.5930    -1.2910     7.8940 o          1 H2A      -0.592100
     17 C13          1.8760    -3.3000     8.1910 c3         1 H2A      -0.159400
     18 C14          1.7310    -4.6490     7.4840 c3         1 H2A      -0.071400
     19 C15          0.3140    -4.9370     7.0030 c3         1 H2A      -0.084400
     20 C16          0.1560    -6.3680     6.5040 c3         1 H2A      -0.062400
     21 C17         -1.1330    -6.6060     5.7130 c3         1 H2A      -0.051300
     22 C18         -2.3720    -6.2060     6.5480 c          1 H2A       0.716000
     23 O19         -2.5540    -6.8710     7.5820 o          1 H2A      -0.705500
     24 O20         -3.0580    -5.2530     6.1280 o          1 H2A      -0.705500
     25 N21         -1.1400    -5.8690     4.4660 ns         1 H2A      -0.410900
     26 C22         -0.4920    -6.2490     3.3720 c          1 H2A       0.571100
     27 O23          0.2330    -7.2310     3.2800 o          1 H2A      -0.660100
     28 C24         -0.7270    -5.3550     2.1630 c3         1 H2A      -0.020400
     29 N25          0.0580    -5.8570     1.0200 nz         1 H2A      -0.968000
     30 O1           3.8470    -3.7730     1.2030 os         1 H2A      -0.425100
     31 C1           3.8440    -5.0930     1.2070 c          1 H2A       0.628100
     32 O2           2.8510    -5.7580     1.4150 o          1 H2A      -0.579000
     33 C26          5.1980    -5.6620     0.9280 c3         1 H2A      -0.158100
     34 H21A         4.9870    -1.6110     1.9480 h1         1 H2A       0.078700
     35 H22          4.2380    -0.0320     2.0260 h1         1 H2A       0.078700
     36 H3           3.1170    -1.3710     0.3460 hc         1 H2A       0.101700
     37 H3'1         1.8480    -3.3690     0.8140 h1         1 H2A       0.036700
     38 H3'2         2.3180    -3.3570     2.5260 h1         1 H2A       0.036700
     39 H4           0.7460    -1.3240     1.2570 h1         1 H2A       0.052700
     40 H6           2.4680     0.6260     4.2330 h2         1 H2A       0.127700
     41 H7           0.7660    -0.2940     5.7380 h1         1 H2A       0.126700
     42 H10          2.3870    -2.7690     5.7800 hn         1 H2A       0.323500
     43 H131         2.9300    -3.1160     8.4220 hc         1 H2A       0.063700
     44 H132         1.3420    -3.3230     9.1410 hc         1 H2A       0.063700
     45 H141         2.0470    -5.4220     8.1890 hc         1 H2A       0.030700
     46 H142         2.4240    -4.7260     6.6410 hc         1 H2A       0.030700
     47 H151         0.0560    -4.2370     6.2020 hc         1 H2A       0.063700
     48 H152        -0.3930    -4.7510     7.8170 hc         1 H2A       0.063700
     49 H161         1.0070    -6.6390     5.8730 hc         1 H2A       0.037700
     50 H162         0.1730    -7.0570     7.3510 hc         1 H2A       0.037700
     51 H17         -1.2050    -7.6740     5.4860 h1         1 H2A       0.058700
     52 H21         -1.7740    -5.0810     4.4420 hn         1 H2A       0.364500
     53 H241        -0.4400    -4.3230     2.3610 hx         1 H2A       0.120200
     54 H242        -1.7780    -5.3590     1.8770 hx         1 H2A       0.120200
     55 H251         1.0790    -5.7740     1.1690 hn         1 H2A       0.513000
     56 H252        -0.1800    -5.3510     0.1670 hn         1 H2A       0.513000
     57 H253        -0.1360    -6.8430     0.8420 hn         1 H2A       0.513000
     58 H261         5.9250    -5.2840     1.6480 hc         1 H2A       0.075033
     59 H262         5.5360    -5.3570    -0.0630 hc         1 H2A       0.075033
     60 H263         5.1730    -6.7460     0.9770 hc         1 H2A       0.075033
@<TRIPOS>BOND
     1     1     2 1   
     2     1    10 1   
     3     2     3 1   
     4     2    34 1   
     5     2    35 1   
     6     3     4 1   
     7     3     5 1   
     8     3    36 1   
     9     4    30 1   
    10     4    37 1   
    11     4    38 1   
    12     5     6 1   
    13     5     9 1   
    14     5    39 1   
    15     6     7 1   
    16     6     8 1   
    17     9    10 1   
    18     9    12 1   
    19    10    11 1   
    20    10    40 1   
    21    11    12 1   
    22    11    14 1   
    23    11    41 1   
    24    12    13 2   
    25    14    15 1   
    26    14    42 1   
    27    15    16 2   
    28    15    17 1   
    29    17    18 1   
    30    17    43 1   
    31    17    44 1   
    32    18    19 1   
    33    18    45 1   
    34    18    46 1   
    35    19    20 1   
    36    19    47 1   
    37    19    48 1   
    38    20    21 1   
    39    20    49 1   
    40    20    50 1   
    41    21    22 1   
    42    21    25 1   
    43    21    51 1   
    44    22    23 1   
    45    22    24 1   
    46    25    26 1   
    47    25    52 1   
    48    26    27 2   
    49    26    28 1   
    50    28    29 1   
    51    28    53 1   
    52    28    54 1   
    53    29    55 1   
    54    29    56 1   
    55    29    57 1   
    56    30    31 1   
    57    31    32 2   
    58    31    33 1   
    59    33    58 1   
    60    33    59 1   
    61    33    60 1   
@<TRIPOS>SUBSTRUCTURE
     1 H2A         1 TEMP              0 ****  ****    0 ROOT
