@<TRIPOS>MOLECULE
H2A
   60    61     1     0     0
SMALL
No Charge or Current Charge


@<TRIPOS>ATOM
      1 S1           4.0390    -1.5180     4.0250 ss         1 H2A      -0.535000
      2 C2           4.3540    -1.1610     2.2240 c6         1 H2A       0.103600
      3 C3           3.1520    -1.5030     1.2980 c6         1 H2A      -0.078700
      4 C5           2.8090    -3.0180     1.3000 c3         1 H2A       0.163600
      5 C4           1.9060    -0.6480     1.6630 c6         1 H2A      -0.037300
      6 C9           2.0150     0.8070     1.0950 c          1 H2A       0.723000
      7 O4A          1.2890     1.0650     0.1440 o          1 H2A      -0.697000
      8 O4B          2.4110     1.6870     1.8480 o          1 H2A      -0.697000
      9 N5           1.6790    -0.7230     3.1220 nj         1 H2A      -0.360800
     10 C6           2.6000    -0.3410     4.2080 cy         1 H2A       0.242700
     11 C7           1.4720    -0.7240     5.2250 cy         1 H2A       0.021700
     12 C8           0.7830    -1.3700     3.9740 c          1 H2A       0.547000
     13 O9          -0.1680    -2.1140     3.7680 o          1 H2A      -0.565000
     14 N10          1.7870    -1.5510     6.3810 ns         1 H2A      -0.488900
     15 C11          0.8380    -2.0600     7.2340 c          1 H2A       0.613100
     16 O12         -0.3440    -1.7580     7.1460 o          1 H2A      -0.592100
     17 C13          1.3690    -3.0300     8.2950 c3         1 H2A      -0.159400
     18 C14          1.3820    -4.5030     7.8080 c3         1 H2A      -0.071400
     19 C15          0.0550    -4.9970     7.1870 c3         1 H2A      -0.084400
     20 C16          0.1030    -6.4860     6.7680 c3         1 H2A      -0.062400
     21 C17         -1.1200    -6.9610     5.9380 c3         1 H2A      -0.051300
     22 C18         -2.4520    -6.8810     6.7460 c          1 H2A       0.716000
     23 O19         -2.7370    -7.8230     7.4730 o          1 H2A      -0.705500
     24 O20         -3.2100    -5.9440     6.5330 o          1 H2A      -0.705500
     25 N21         -1.2360    -6.2230     4.6540 ns         1 H2A      -0.410900
     26 C22         -0.4140    -6.3880     3.5610 c          1 H2A       0.571100
     27 O23          0.4740    -7.2310     3.5220 o          1 H2A      -0.660100
     28 C24         -0.7050    -5.4360     2.3700 c3         1 H2A      -0.020400
     29 N25         -0.0080    -5.8620     1.0630 nz         1 H2A      -0.968000
     30 O1           3.9460    -3.7620     0.8340 os         1 H2A      -0.425100
     31 C1           3.8150    -5.1180     0.7150 c          1 H2A       0.628100
     32 O2           2.7770    -5.7350     0.9260 o          1 H2A      -0.579000
     33 C26          5.0990    -5.7680     0.2280 c3         1 H2A      -0.158100
     34 H21A         5.2370    -1.7390     1.9140 h1         1 H2A       0.078700
     35 H22          4.6120    -0.0970     2.1250 h1         1 H2A       0.078700
     36 H3           3.4360    -1.2710     0.2620 hc         1 H2A       0.101700
     37 H3'1         1.9480    -3.1840     0.6390 h1         1 H2A       0.036700
     38 H3'2         2.5260    -3.3330     2.3130 h1         1 H2A       0.036700
     39 H4           1.0310    -1.0890     1.1640 h1         1 H2A       0.052700
     40 H6           2.9400     0.7020     4.2030 h2         1 H2A       0.127700
     41 H7           0.9050     0.1490     5.5630 h1         1 H2A       0.126700
     42 H10          2.7390    -1.8740     6.5200 hn         1 H2A       0.323500
     43 H131         2.4070    -2.7720     8.5370 hc         1 H2A       0.063700
     44 H132         0.7400    -2.9600     9.1900 hc         1 H2A       0.063700
     45 H141         1.6500    -5.1500     8.6530 hc         1 H2A       0.030700
     46 H142         2.1790    -4.6170     7.0630 hc         1 H2A       0.030700
     47 H151        -0.1730    -4.3880     6.3040 hc         1 H2A       0.063700
     48 H152        -0.7620    -4.8440     7.9020 hc         1 H2A       0.063700
     49 H161         1.0150    -6.6640     6.1850 hc         1 H2A       0.037700
     50 H162         0.1880    -7.1080     7.6670 hc         1 H2A       0.037700
     51 H17         -0.9710    -8.0210     5.6950 h1         1 H2A       0.058700
     52 H21         -1.9620    -5.5160     4.5850 hn         1 H2A       0.364500
     53 H241        -0.3670    -4.4370     2.6650 hx         1 H2A       0.120200
     54 H242        -1.7890    -5.4180     2.2230 hx         1 H2A       0.120200
     55 H251         1.0300    -5.8900     1.1500 hn         1 H2A       0.513000
     56 H252        -0.2070    -5.2500     0.2570 hn         1 H2A       0.513000
     57 H253        -0.2620    -6.8160     0.7620 hn         1 H2A       0.513000
     58 H261         5.9070    -5.5120     0.9220 hc         1 H2A       0.075033
     59 H262         5.4180    -5.2710    -0.6940 hc         1 H2A       0.075033
     60 H263         4.9990    -6.8500     0.0960 hc         1 H2A       0.075033
@<TRIPOS>BOND
     1     1     2 1   
     2     1    10 1   
     3     2     3 1   
     4     2    34 1   
     5     2    35 1   
     6     3     4 1   
     7     3     5 1   
     8     3    36 1   
     9     4    30 1   
    10     4    37 1   
    11     4    38 1   
    12     5     6 1   
    13     5     9 1   
    14     5    39 1   
    15     6     7 1   
    16     6     8 1   
    17     9    10 1   
    18     9    12 1   
    19    10    11 1   
    20    10    40 1   
    21    11    12 1   
    22    11    14 1   
    23    11    41 1   
    24    12    13 2   
    25    14    15 1   
    26    14    42 1   
    27    15    16 2   
    28    15    17 1   
    29    17    18 1   
    30    17    43 1   
    31    17    44 1   
    32    18    19 1   
    33    18    45 1   
    34    18    46 1   
    35    19    20 1   
    36    19    47 1   
    37    19    48 1   
    38    20    21 1   
    39    20    49 1   
    40    20    50 1   
    41    21    22 1   
    42    21    25 1   
    43    21    51 1   
    44    22    23 1   
    45    22    24 1   
    46    25    26 1   
    47    25    52 1   
    48    26    27 2   
    49    26    28 1   
    50    28    29 1   
    51    28    53 1   
    52    28    54 1   
    53    29    55 1   
    54    29    56 1   
    55    29    57 1   
    56    30    31 1   
    57    31    32 2   
    58    31    33 1   
    59    33    58 1   
    60    33    59 1   
    61    33    60 1   
@<TRIPOS>SUBSTRUCTURE
     1 H2A         1 TEMP              0 ****  ****    0 ROOT
