@<TRIPOS>MOLECULE
H2B
   30    31     1     0     0
SMALL
bcc


@<TRIPOS>ATOM
      1 N1          -1.1970    -0.1370    -2.7770 nc         1 H2B      -0.852000
      2 C2          -0.0230    -0.1320    -3.4740 cc         1 H2B       0.950200
      3 N2          -0.1700    -0.3390    -4.7740 nv         1 H2B      -0.893800
      4 N3           1.2120     0.0740    -3.0300 nd         1 H2B      -0.818100
      5 C4           1.4110     0.2350    -1.7130 c          1 H2B       0.646200
      6 O4           2.5010     0.4590    -1.2120 o          1 H2B      -0.509100
      7 C4A          0.2070     0.0990    -0.8160 cd         1 H2B       0.230000
      8 C8A         -1.1080     0.0140    -1.4900 cd         1 H2B       0.632900
      9 N5           0.3560    -0.0330     0.4290 n2         1 H2B      -0.506900
     10 N8          -2.1680     0.0510    -0.7080 nu         1 H2B      -0.813200
     11 C6          -0.7980    -0.2170     1.2840 c6         1 H2B       0.045500
     12 C7          -2.0640     0.3930     0.6990 c6         1 H2B       0.207800
     13 C9          -0.4980     0.3440     2.6870 c3         1 H2B       0.116100
     14 O9          -1.6080     0.1120     3.5180 oh         1 H2B      -0.587800
     15 C10          0.8160    -0.2070     3.2810 c3         1 H2B       0.140100
     16 C11          0.9570     0.1510     4.7500 c3         1 H2B      -0.088100
     17 O10          1.9400     0.3190     2.6110 oh         1 H2B      -0.598800
     18 H22          0.6310    -0.3510    -5.3810 hn         1 H2B       0.456800
     19 H21         -1.0810    -0.4970    -5.1680 hn         1 H2B       0.456800
     20 H8          -3.0810     0.0130    -1.1390 hn         1 H2B       0.460800
     21 H6          -0.9220    -1.3060     1.3770 h1         1 H2B       0.080700
     22 H71         -2.9450     0.0090     1.2070 h1         1 H2B       0.072700
     23 H72         -2.0530     1.4810     0.8180 h1         1 H2B       0.072700
     24 H9          -0.3980     1.4330     2.6140 h1         1 H2B       0.094700
     25 H9O1        -1.7020    -0.8370     3.6610 ho         1 H2B       0.403000
     26 H10          0.7910    -1.3080     3.1940 h1         1 H2B       0.018700
     27 H113         1.9240    -0.1900     5.1230 hc         1 H2B       0.046033
     28 H112         0.8970     1.2310     4.8990 hc         1 H2B       0.046033
     29 H111         0.1870    -0.3200     5.3580 hc         1 H2B       0.046033
     30 H1O1         1.7950     0.1800     1.6610 ho         1 H2B       0.444000
@<TRIPOS>BOND
     1     1     2 1   
     2     1     8 2   
     3     2     3 1   
     4     2     4 2   
     5     3    18 1   
     6     3    19 1   
     7     4     5 1   
     8     5     6 2   
     9     5     7 1   
    10     7     8 1   
    11     7     9 2   
    12     8    10 1   
    13     9    11 1   
    14    10    12 1   
    15    10    20 1   
    16    11    12 1   
    17    11    13 1   
    18    11    21 1   
    19    12    22 1   
    20    12    23 1   
    21    13    14 1   
    22    13    15 1   
    23    13    24 1   
    24    14    25 1   
    25    15    16 1   
    26    15    17 1   
    27    15    26 1   
    28    16    27 1   
    29    16    28 1   
    30    16    29 1   
    31    17    30 1   
@<TRIPOS>SUBSTRUCTURE
     1 H2B         1 TEMP              0 ****  ****    0 ROOT
