@<TRIPOS>MOLECULE
H2B
   30    31     1     0     0
SMALL
No Charge or Current Charge


@<TRIPOS>ATOM
      1 N1          -1.2060    -0.0360    -2.8240 nc         1 H2B      -0.852000
      2 C2          -0.1020     0.1080    -3.5590 cc         1 H2B       0.950200
      3 N2          -0.3720     0.1340    -4.8160 nv         1 H2B      -1.004200
      4 N3           1.1330     0.1820    -3.2130 nd         1 H2B      -0.818100
      5 C4           1.4810     0.1410    -1.8590 c          1 H2B       0.646200
      6 O4           2.6610     0.2260    -1.5480 o          1 H2B      -0.509100
      7 C4A          0.3540    -0.0100    -0.9070 cd         1 H2B       0.230000
      8 C8A         -0.9480    -0.0900    -1.5390 cd         1 H2B       0.632900
      9 N5           0.4960    -0.0650     0.4040 n2         1 H2B      -0.506900
     10 N8          -2.0830    -0.1860    -0.8110 nu         1 H2B      -0.868400
     11 C6          -0.7040    -0.3080     1.2650 c6         1 H2B       0.045500
     12 C7          -2.0460     0.1850     0.6180 c6         1 H2B       0.207800
     13 C9          -0.4890     0.3050     2.6990 c3         1 H2B       0.139300
     14 O9          -1.6780     0.1240     3.4980 oh         1 H2B      -0.650000
     15 C10          0.7550    -0.2520     3.4840 c3         1 H2B       0.163300
     16 C11          0.9370     0.3770     4.8840 c3         1 H2B      -0.088100
     17 O10          1.9620    -0.0310     2.7460 oh         1 H2B      -0.661000
     18 H22          0.4010    -0.1950    -5.3710 hn         1 H2B       0.512000
     19 H21         -1.2650    -0.2910    -5.0050 hn         1 H2B       0.512000
     20 H8          -2.9040     0.0190    -1.3770 hn         1 H2B       0.516000
     21 H6          -0.7870    -1.3990     1.3870 h1         1 H2B       0.080700
     22 H71         -2.9010    -0.2520     1.1560 h1         1 H2B       0.072700
     23 H72         -2.1180     1.2780     0.7250 h1         1 H2B       0.072700
     24 H9          -0.3220     1.3820     2.5560 h1         1 H2B       0.094700
     25 H9O1        -1.7130    -0.8180     3.7740 ho         1 H2B       0.442000
     26 H10          0.6130    -1.3330     3.6160 h1         1 H2B       0.018700
     27 H113         1.8340    -0.0230     5.3720 hc         1 H2B       0.046033
     28 H112         1.0420     1.4670     4.8110 hc         1 H2B       0.046033
     29 H111         0.0810     0.1560     5.5310 hc         1 H2B       0.046033
     30 H1O1         1.6960    -0.0700     1.7920 ho         1 H2B       0.483000
@<TRIPOS>BOND
     1     1     2 1   
     2     1     8 2   
     3     2     3 1   
     4     2     4 2   
     5     3    18 1   
     6     3    19 1   
     7     4     5 1   
     8     5     6 2   
     9     5     7 1   
    10     7     8 1   
    11     7     9 2   
    12     8    10 1   
    13     9    11 1   
    14    10    12 1   
    15    10    20 1   
    16    11    12 1   
    17    11    13 1   
    18    11    21 1   
    19    12    22 1   
    20    12    23 1   
    21    13    14 1   
    22    13    15 1   
    23    13    24 1   
    24    14    25 1   
    25    15    16 1   
    26    15    17 1   
    27    15    26 1   
    28    16    27 1   
    29    16    28 1   
    30    16    29 1   
    31    17    30 1   
@<TRIPOS>SUBSTRUCTURE
     1 H2B         1 TEMP              0 ****  ****    0 ROOT
