@<TRIPOS>MOLECULE
H2C
   30    32     1     0     0
SMALL
bcc


@<TRIPOS>ATOM
      1 C13         -7.2050     7.5910    -9.9470 c6         1 H2C      -0.323600
      2 C12         -6.6510     6.4290   -10.7580 c          1 H2C       0.658700
      3 C11         -5.5270     6.7520   -11.5950 cc         1 H2C      -0.273700
      4 C10         -4.9690     8.0050   -11.7870 cd         1 H2C       0.204600
      5 C3          -3.6780     9.8000    -8.9980 ca         1 H2C      -0.084500
      6 C4          -2.5930     9.7520    -8.1390 ca         1 H2C      -0.168000
      7 C5          -1.3730    10.2260    -8.5850 ca         1 H2C       0.144900
      8 C24         -3.5550     6.6880   -13.0360 cc         1 H2C      -0.098100
      9 C25         -3.8200     7.9590   -12.6160 cd         1 H2C      -0.175000
     10 C6          -1.2040    10.7340    -9.8570 ca         1 H2C      -0.168000
     11 C2          -3.5460    10.3100   -10.2870 ca         1 H2C      -0.120300
     12 C7          -2.3030    10.7680   -10.7050 ca         1 H2C      -0.084500
     13 N9          -5.4940     9.1530   -11.2230 nh         1 H2C      -0.621900
     14 O17         -7.1090     5.3130   -10.6400 o          1 H2C      -0.500100
     15 S14         -7.1330     9.1210   -10.8590 s6         1 H2C       1.262900
     16 S23         -4.6680     5.5360   -12.4600 ss         1 H2C       0.069200
     17 H1          -8.2500     7.4230    -9.6790 h1         1 H2C       0.130200
     18 H2          -6.6160     7.7150    -9.0330 h1         1 H2C       0.130200
     19 H3          -4.6360     9.4340    -8.6510 ha         1 H2C       0.133000
     20 H4          -2.6930     9.3560    -7.1370 ha         1 H2C       0.153000
     21 H5          -2.7450     6.3840   -13.6820 h4         1 H2C       0.174000
     22 H6          -3.2220     8.8110   -12.9000 ha         1 H2C       0.163000
     23 H7          -0.2360    11.0910   -10.1850 ha         1 H2C       0.153000
     24 H8          -4.4270    10.6640   -12.2180 h1         1 H2C       0.071200
     25 H9          -5.4040    11.1940   -10.8730 h1         1 H2C       0.071200
     26 H10         -2.1830    11.1580   -11.7090 ha         1 H2C       0.133000
     27 C1          -4.7370    10.3990   -11.2050 c3         1 H2C       0.283100
     28 O15         -7.9090     8.9410   -12.0690 o          1 H2C      -0.587800
     29 O16         -7.4030    10.2590   -10.0040 o          1 H2C      -0.587800
     30 F8          -0.3230    10.1870    -7.7500 f          1 H2C      -0.139900
@<TRIPOS>BOND
     1     1     2 1   
     2     1    15 1   
     3     1    17 1   
     4     1    18 1   
     5     2     3 1   
     6     2    14 2   
     7     3     4 2   
     8     3    16 1   
     9     4     9 1   
    10     4    13 1   
    11     5     6 ar  
    12     5    11 ar  
    13     5    19 1   
    14     6     7 ar  
    15     6    20 1   
    16     7    10 ar  
    17     7    30 1   
    18     8     9 2   
    19     8    16 1   
    20     8    21 1   
    21     9    22 1   
    22    10    12 ar  
    23    10    23 1   
    24    11    12 ar  
    25    11    27 1   
    26    12    26 1   
    27    13    15 1   
    28    13    27 1   
    29    15    28 2   
    30    15    29 2   
    31    24    27 1   
    32    25    27 1   
@<TRIPOS>SUBSTRUCTURE
     1 H2C         1 TEMP              0 ****  ****    0 ROOT
