@<TRIPOS>MOLECULE
H2C
   30    32     1     0     0
SMALL
No Charge or Current Charge


@<TRIPOS>ATOM
      1 C13         -7.2670     7.5000    -9.9790 c6         1 H2C      -0.434400
      2 C12         -6.8260     6.4620   -10.9630 c          1 H2C       0.658700
      3 C11         -5.6070     6.7210   -11.7190 cc         1 H2C      -0.418600
      4 C10         -4.9630     7.9140   -11.7660 cd         1 H2C       0.343000
      5 C3          -3.6580     9.9310    -8.9180 ca         1 H2C      -0.066500
      6 C4          -2.5310     9.9340    -8.0770 ca         1 H2C      -0.150000
      7 C5          -1.2890    10.3540    -8.5740 ca         1 H2C       0.180000
      8 C24         -3.4910     6.6220   -13.0420 cc         1 H2C      -0.225000
      9 C25         -3.7510     7.8620   -12.5080 cd         1 H2C      -0.157000
     10 C6          -1.1650    10.7740    -9.9070 ca         1 H2C      -0.150000
     11 C2          -3.5440    10.3470   -10.2610 ca         1 H2C      -0.120300
     12 C7          -2.2910    10.7730   -10.7500 ca         1 H2C      -0.066500
     13 N9          -5.4830     9.0520   -11.1840 nh         1 H2C      -0.760300
     14 O17         -7.4460     5.4140   -11.0590 o          1 H2C      -0.500100
     15 S14         -7.1380     9.0730   -10.7450 s6         1 H2C       1.232100
     16 S23         -4.7930     5.4950   -12.6720 ss         1 H2C       0.359000
     17 H1          -8.3120     7.3510    -9.6950 h1         1 H2C       0.130200
     18 H2          -6.5910     7.5090    -9.1200 h1         1 H2C       0.130200
     19 H3          -4.6190     9.6040    -8.5270 ha         1 H2C       0.115000
     20 H4          -2.6190     9.6110    -7.0430 ha         1 H2C       0.135000
     21 H5          -2.6550     6.2920   -13.6440 h4         1 H2C       0.156000
     22 H6          -3.0940     8.7110   -12.6520 ha         1 H2C       0.145000
     23 H7          -0.2000    11.1000   -10.2840 ha         1 H2C       0.135000
     24 H8          -4.4530    10.5850   -12.1990 h1         1 H2C       0.071200
     25 H9          -5.4210    11.1680   -10.8660 h1         1 H2C       0.071200
     26 H10         -2.1870    11.1010   -11.7820 ha         1 H2C       0.115000
     27 C1          -4.7670    10.3420   -11.1750 c3         1 H2C       0.283100
     28 O15         -7.9210     9.0850   -11.9840 o          1 H2C      -0.517000
     29 O16         -7.3250    10.1110    -9.7280 o          1 H2C      -0.517000
     30 F8          -0.2070    10.3560    -7.7660 f          1 H2C      -0.175000
@<TRIPOS>BOND
     1     1     2 1   
     2     1    15 1   
     3     1    17 1   
     4     1    18 1   
     5     2     3 1   
     6     2    14 2   
     7     3     4 2   
     8     3    16 1   
     9     4     9 1   
    10     4    13 1   
    11     5     6 ar  
    12     5    11 ar  
    13     5    19 1   
    14     6     7 ar  
    15     6    20 1   
    16     7    10 ar  
    17     7    30 1   
    18     8     9 2   
    19     8    16 1   
    20     8    21 1   
    21     9    22 1   
    22    10    12 ar  
    23    10    23 1   
    24    11    12 ar  
    25    11    27 1   
    26    12    26 1   
    27    13    15 1   
    28    13    27 1   
    29    15    28 2   
    30    15    29 2   
    31    24    27 1   
    32    25    27 1   
@<TRIPOS>SUBSTRUCTURE
     1 H2C         1 TEMP              0 ****  ****    0 ROOT
