@<TRIPOS>MOLECULE
H2D
   31    32     1     0     0
SMALL
No Charge or Current Charge


@<TRIPOS>ATOM
      1 N1          -3.4750    -0.0360     1.7070 nc         1 H2D      -0.437300
      2 C4          -0.4940     0.2870    -0.3980 c          1 H2D       0.616100
      3 C5           0.8040     1.0750    -0.1020 c3         1 H2D      -0.088400
      4 C6           1.9980     0.1200     0.0390 ca         1 H2D      -0.081300
      5 C7           1.0330     2.1990    -1.1510 c3         1 H2D      -0.066400
      6 C8           2.2540     3.0920    -0.8460 c3         1 H2D      -0.091100
      7 C10          3.6490    -1.3950    -0.9410 ca         1 H2D      -0.111500
      8 C13          2.5520    -0.1290     1.3120 ca         1 H2D      -0.091000
      9 O1          -4.6680    -0.7880     1.3910 os         1 H2D      -0.059700
     10 C1          -4.5050    -1.3710     0.1570 cc         1 H2D       0.170900
     11 C2          -3.2800    -1.0280    -0.3200 cd         1 H2D      -0.236000
     12 C3          -2.6910    -0.2130     0.6640 cd         1 H2D       0.400900
     13 N2          -1.4460     0.3580     0.5950 ns         1 H2D      -0.481400
     14 O2          -0.6480    -0.3490    -1.4310 o          1 H2D      -0.559100
     15 C9           2.5560    -0.5240    -1.0870 ca         1 H2D      -0.091000
     16 C11          4.1960    -1.6330     0.3300 ca         1 H2D      -0.102000
     17 C12          3.6460    -1.0000     1.4570 ca         1 H2D      -0.111500
     18 H1           0.6620     1.5820     0.8600 hc         1 H2D       0.058700
     19 H2           1.1460     1.7660    -2.1520 hc         1 H2D       0.050700
     20 H3           0.1390     2.8340    -1.1890 hc         1 H2D       0.050700
     21 H4           2.3390     3.8900    -1.5930 hc         1 H2D       0.038367
     22 H5           2.1580     3.5580     0.1420 hc         1 H2D       0.038367
     23 H6           3.1830     2.5090    -0.8650 hc         1 H2D       0.038367
     24 H7           4.0720    -1.8860    -1.8150 ha         1 H2D       0.114500
     25 H8           2.1380     0.3540     2.1950 ha         1 H2D       0.114000
     26 H9          -5.3100    -1.9760    -0.2390 h4         1 H2D       0.058100
     27 H10         -2.8680    -1.3360    -1.2700 ha         1 H2D       0.178000
     28 H11         -1.1690     0.9190     1.3880 hn         1 H2D       0.338500
     29 H12          2.1410    -0.3560    -2.0780 ha         1 H2D       0.114000
     30 H13          5.0420    -2.3070     0.4430 ha         1 H2D       0.114000
     31 H14          4.0670    -1.1840     2.4430 ha         1 H2D       0.114500
@<TRIPOS>BOND
     1     1     9 1   
     2     1    12 2   
     3     2     3 1   
     4     2    13 1   
     5     2    14 2   
     6     3     4 1   
     7     3     5 1   
     8     3    18 1   
     9     4     8 ar  
    10     4    15 ar  
    11     5     6 1   
    12     5    19 1   
    13     5    20 1   
    14     6    21 1   
    15     6    22 1   
    16     6    23 1   
    17     7    15 ar  
    18     7    16 ar  
    19     7    24 1   
    20     8    17 ar  
    21     8    25 1   
    22     9    10 1   
    23    10    11 2   
    24    10    26 1   
    25    11    12 1   
    26    11    27 1   
    27    12    13 1   
    28    13    28 1   
    29    15    29 1   
    30    16    17 ar  
    31    16    30 1   
    32    17    31 1   
@<TRIPOS>SUBSTRUCTURE
     1 H2D         1 TEMP              0 ****  ****    0 ROOT
