@<TRIPOS>MOLECULE
H2D
   31    32     1     0     0
SMALL
abcg2


@<TRIPOS>ATOM
      1 N1          -3.5880     0.2850     1.4310 nc         1 H2D      -0.437300
      2 C4          -0.4080     0.1490    -0.2310 c          1 H2D       0.616100
      3 C5           0.8440     0.9760     0.0170 c3         1 H2D      -0.088400
      4 C6           2.0580     0.0810     0.0710 ca         1 H2D      -0.081300
      5 C7           0.9240     2.0760    -1.0550 c3         1 H2D      -0.066400
      6 C8           2.0950     3.0210    -0.8330 c3         1 H2D      -0.091100
      7 C10          3.7440    -1.2820    -0.9950 ca         1 H2D      -0.111500
      8 C13          2.6240    -0.2300     1.3040 ca         1 H2D      -0.091000
      9 O1          -4.7250    -0.4120     1.1590 os         1 H2D      -0.059700
     10 C1          -4.5180    -1.2050     0.1130 cc         1 H2D       0.170900
     11 C2          -3.2540    -1.0700    -0.3420 cd         1 H2D      -0.236000
     12 C3          -2.7100    -0.1010     0.5450 cd         1 H2D       0.400900
     13 N2          -1.4510     0.4570     0.5900 ns         1 H2D      -0.481400
     14 O2          -0.4800    -0.6870    -1.1070 o          1 H2D      -0.559100
     15 C9           2.6310    -0.4580    -1.0800 ca         1 H2D      -0.091000
     16 C11          4.3000    -1.5870     0.2420 ca         1 H2D      -0.102000
     17 C12          3.7360    -1.0570     1.3930 ca         1 H2D      -0.111500
     18 H1           0.7550     1.4720     0.9880 hc         1 H2D       0.058700
     19 H2           0.9840     1.6250    -2.0470 hc         1 H2D       0.050700
     20 H3          -0.0080     2.6470    -1.0350 hc         1 H2D       0.050700
     21 H4           2.1090     3.8000    -1.5950 hc         1 H2D       0.038367
     22 H5           2.0290     3.5090     0.1410 hc         1 H2D       0.038367
     23 H6           3.0510     2.4980    -0.8760 hc         1 H2D       0.038367
     24 H7           4.1800    -1.6870    -1.8990 ha         1 H2D       0.114500
     25 H8           2.1910     0.1840     2.2080 ha         1 H2D       0.114000
     26 H9          -5.3470    -1.8160    -0.2090 h4         1 H2D       0.058100
     27 H10         -2.7910    -1.5750    -1.1680 ha         1 H2D       0.178000
     28 H11         -1.3080     1.1550     1.3050 hn         1 H2D       0.338500
     29 H12          2.2240    -0.2260    -2.0550 ha         1 H2D       0.114000
     30 H13          5.1690    -2.2290     0.3050 ha         1 H2D       0.114000
     31 H14          4.1630    -1.2810     2.3630 ha         1 H2D       0.114500
@<TRIPOS>BOND
     1     1     9 1   
     2     1    12 2   
     3     2     3 1   
     4     2    13 1   
     5     2    14 2   
     6     3     4 1   
     7     3     5 1   
     8     3    18 1   
     9     4     8 ar  
    10     4    15 ar  
    11     5     6 1   
    12     5    19 1   
    13     5    20 1   
    14     6    21 1   
    15     6    22 1   
    16     6    23 1   
    17     7    15 ar  
    18     7    16 ar  
    19     7    24 1   
    20     8    17 ar  
    21     8    25 1   
    22     9    10 1   
    23    10    11 2   
    24    10    26 1   
    25    11    12 1   
    26    11    27 1   
    27    12    13 1   
    28    13    28 1   
    29    15    29 1   
    30    16    17 ar  
    31    16    30 1   
    32    17    31 1   
@<TRIPOS>SUBSTRUCTURE
     1 H2D         1 TEMP              0 ****  ****    0 ROOT
