@<TRIPOS>MOLECULE
H2E
   69    74     1     0     0
SMALL
abcg2


@<TRIPOS>ATOM
      1 C1           0.6470     2.0110    -1.6540 ca         1 H2E      -0.074300
      2 C2           1.5820     1.4420    -0.7880 ca         1 H2E      -0.078000
      3 C3          -0.2490    -0.5240    -0.5340 ca         1 H2E      -0.170000
      4 C4          -1.0150     0.1720    -1.4680 ca         1 H2E      -0.026300
      5 C5          -0.3120     1.1200    -2.3940 c6         1 H2E       0.006200
      6 C10         -5.0430    -2.0700    -0.0580 c3         1 H2E       0.178300
      7 C11         -6.5140    -1.7000    -0.1630 c3         1 H2E       0.171800
      8 C12         -6.6460    -0.1390     1.6830 c6         1 H2E       0.126800
      9 C13         -6.9660     1.3010     2.0370 c6         1 H2E       0.153600
     10 C14         -8.4520     1.4560     0.2600 c6         1 H2E       0.153600
     11 C24          5.5340     0.2990     2.0550 cc         1 H2E      -0.495200
     12 C25          5.0430    -0.1510     0.8580 cd         1 H2E       0.393100
     13 C6          -2.3810    -0.0400    -1.5160 ca         1 H2E      -0.140000
     14 C16         -4.8150    -3.4760    -0.5890 c3         1 H2E      -0.128100
     15 C15         -8.1710     0.0190    -0.1300 c6         1 H2E       0.126800
     16 S1           1.5020    -0.3010    -0.4840 ss         1 H2E       0.083000
     17 C7          -2.9950    -0.9640    -0.6660 ca         1 H2E       0.167100
     18 C8          -2.2200    -1.6520     0.2670 ca         1 H2E      -0.206000
     19 C9          -0.8530    -1.4190     0.3340 ca         1 H2E      -0.033000
     20 O1          -4.3240    -1.1020    -0.8170 os         1 H2E      -0.330100
     21 N1          -6.8220    -0.3510     0.2580 n3         1 H2E      -0.704600
     22 O2          -8.2730     1.6590     1.6450 os         1 H2E      -0.450000
     23 C17          2.5390     2.2450    -0.1520 ca         1 H2E      -0.040800
     24 C18          2.5220     3.6210    -0.3650 ca         1 H2E      -0.078000
     25 C19          1.5670     4.1940    -1.1870 ca         1 H2E      -0.108000
     26 C20          0.6380     3.3890    -1.8290 ca         1 H2E      -0.081000
     27 C21          3.5660     1.6710     0.7250 cc         1 H2E       0.176900
     28 C22          3.9540     2.1490     1.9130 cd         1 H2E      -0.340200
     29 C23          5.0170     1.4870     2.6670 c          1 H2E       0.597500
     30 O3           4.1170     0.5570     0.1950 os         1 H2E      -0.240200
     31 N2           5.3670    -1.2880     0.2170 nh         1 H2E      -0.677400
     32 C26          6.3570    -2.1940     0.7750 c6         1 H2E       0.184300
     33 C27          6.0190    -3.6230     0.3840 c6         1 H2E       0.141100
     34 O4           5.8770    -3.7750    -1.0080 os         1 H2E      -0.441000
     35 C28          4.8520    -2.9400    -1.4930 c6         1 H2E       0.141100
     36 C29          5.1430    -1.4780    -1.2140 c6         1 H2E       0.184300
     37 O5           5.4190     1.9330     3.7440 o          1 H2E      -0.575100
     38 H1          -1.0300     1.7170    -2.9560 hc         1 H2E       0.068700
     39 H2           0.2580     0.5320    -3.1250 hc         1 H2E       0.068700
     40 H3          -4.7280    -2.0250     0.9900 h1         1 H2E       0.044700
     41 H4          -6.8230    -1.8080    -1.2080 h1         1 H2E       0.043200
     42 H5          -7.0830    -2.4520     0.4090 h1         1 H2E       0.043200
     43 H7          -7.2820    -0.8170     2.2780 h1         1 H2E       0.039700
     44 H8          -6.8980     1.4430     3.1160 h1         1 H2E       0.052450
     45 H9          -6.2280     1.9620     1.5610 h1         1 H2E       0.052450
     46 H10         -7.7940     2.1240    -0.3140 h1         1 H2E       0.052450
     47 H11         -9.4850     1.7160     0.0220 h1         1 H2E       0.052450
     48 H12          6.3210    -0.2390     2.5600 ha         1 H2E       0.208000
     49 H13         -2.9860     0.5010    -2.2340 ha         1 H2E       0.130000
     50 H14         -3.7710    -3.7810    -0.5210 hc         1 H2E       0.048700
     51 H15         -5.4000    -4.1920    -0.0110 hc         1 H2E       0.048700
     52 H16         -5.1230    -3.5520    -1.6330 hc         1 H2E       0.048700
     53 H17         -8.9270    -0.6400     0.3310 h1         1 H2E       0.039700
     54 H18         -8.2760    -0.0800    -1.2130 h1         1 H2E       0.039700
     55 H19         -2.6540    -2.3640     0.9540 ha         1 H2E       0.119000
     56 H20         -0.2640    -1.9450     1.0740 ha         1 H2E       0.124000
     57 H22          3.2720     4.2410     0.1100 ha         1 H2E       0.126000
     58 H23          1.5590     5.2640    -1.3430 ha         1 H2E       0.122000
     59 H24         -0.0970     3.8330    -2.4880 ha         1 H2E       0.118000
     60 H25          3.4740     3.0290     2.3190 ha         1 H2E       0.214000
     61 H26          7.3600    -1.9220     0.4290 h1         1 H2E       0.063700
     62 H27          6.3500    -2.1370     1.8610 h1         1 H2E       0.063700
     63 H28          6.8230    -4.2840     0.7110 h1         1 H2E       0.058200
     64 H29          5.0990    -3.9270     0.9010 h1         1 H2E       0.058200
     65 H30          4.7780    -3.0940    -2.5700 h1         1 H2E       0.058200
     66 H31          3.8870    -3.2100    -1.0410 h1         1 H2E       0.058200
     67 H32          4.3010    -0.8860    -1.5610 h1         1 H2E       0.063700
     68 H33          6.0310    -1.1560    -1.7700 h1         1 H2E       0.063700
     69 H6          -5.6110    -0.3340     1.9720 h1         1 H2E       0.039700
@<TRIPOS>BOND
     1     1     2 ar  
     2     1     5 1   
     3     1    26 ar  
     4     2    16 1   
     5     2    23 ar  
     6     3     4 ar  
     7     3    16 1   
     8     3    19 ar  
     9     4     5 1   
    10     4    13 ar  
    11     5    38 1   
    12     5    39 1   
    13     6     7 1   
    14     6    14 1   
    15     6    20 1   
    16     6    40 1   
    17     7    21 1   
    18     7    41 1   
    19     7    42 1   
    20     8     9 1   
    21     8    21 1   
    22     8    43 1   
    23     8    69 1   
    24     9    22 1   
    25     9    44 1   
    26     9    45 1   
    27    10    15 1   
    28    10    22 1   
    29    10    46 1   
    30    10    47 1   
    31    11    12 2   
    32    11    29 1   
    33    11    48 1   
    34    12    30 1   
    35    12    31 1   
    36    13    17 ar  
    37    13    49 1   
    38    14    50 1   
    39    14    51 1   
    40    14    52 1   
    41    15    21 1   
    42    15    53 1   
    43    15    54 1   
    44    17    18 ar  
    45    17    20 1   
    46    18    19 ar  
    47    18    55 1   
    48    19    56 1   
    49    23    24 ar  
    50    23    27 1   
    51    24    25 ar  
    52    24    57 1   
    53    25    26 ar  
    54    25    58 1   
    55    26    59 1   
    56    27    28 2   
    57    27    30 1   
    58    28    29 1   
    59    28    60 1   
    60    29    37 2   
    61    31    32 1   
    62    31    36 1   
    63    32    33 1   
    64    32    61 1   
    65    32    62 1   
    66    33    34 1   
    67    33    63 1   
    68    33    64 1   
    69    34    35 1   
    70    35    36 1   
    71    35    65 1   
    72    35    66 1   
    73    36    67 1   
    74    36    68 1   
@<TRIPOS>SUBSTRUCTURE
     1 H2E         1 TEMP              0 ****  ****    0 ROOT
