@<TRIPOS>MOLECULE
H2E
   69    74     1     0     0
SMALL
No Charge or Current Charge


@<TRIPOS>ATOM
      1 C1           0.6380     2.0050    -1.8960 ca         1 H2E      -0.074300
      2 C2           1.5460     1.3770    -1.0120 ca         1 H2E      -0.078000
      3 C3          -0.4010    -0.5570    -0.7460 ca         1 H2E      -0.170000
      4 C4          -1.1560     0.2120    -1.6520 ca         1 H2E      -0.026300
      5 C5          -0.4590     1.1950    -2.5920 c6         1 H2E       0.006200
      6 C10         -5.3570    -1.9720    -0.2760 c3         1 H2E       0.178300
      7 C11         -6.8500    -1.5250    -0.2940 c3         1 H2E       0.171800
      8 C12         -6.8140    -0.1900     1.8320 c6         1 H2E       0.126800
      9 C13         -7.1610     1.1860     2.4750 c6         1 H2E       0.153600
     10 C14         -8.8900     1.5630     0.8410 c6         1 H2E       0.153600
     11 C24          5.4310     0.2770     2.1740 cc         1 H2E      -0.495200
     12 C25          5.1470    -0.2320     0.9370 cd         1 H2E       0.393100
     13 C6          -2.5540     0.0530    -1.6960 ca         1 H2E      -0.140000
     14 C16         -5.1490    -3.3110    -1.0220 c3         1 H2E      -0.128100
     15 C15         -8.5840     0.1940     0.1640 c6         1 H2E       0.126800
     16 S1           1.3790    -0.3810    -0.6640 ss         1 H2E       0.083000
     17 C7          -3.2010    -0.8630    -0.8520 ca         1 H2E       0.167100
     18 C8          -2.4370    -1.6270     0.0580 ca         1 H2E      -0.206000
     19 C9          -1.0410    -1.4740     0.1040 ca         1 H2E      -0.033000
     20 O1          -4.5770    -0.9570    -0.9460 os         1 H2E      -0.330100
     21 N1          -7.1640    -0.2270     0.3750 n3         1 H2E      -0.704600
     22 O2          -8.5530     1.5130     2.2480 os         1 H2E      -0.450000
     23 C17          2.5670     2.1370    -0.3880 ca         1 H2E      -0.040800
     24 C18          2.6560     3.5190    -0.6500 ca         1 H2E      -0.078000
     25 C19          1.7530     4.1400    -1.5260 ca         1 H2E      -0.108000
     26 C20          0.7490     3.3850    -2.1490 ca         1 H2E      -0.081000
     27 C21          3.5340     1.5240     0.5260 cc         1 H2E       0.176900
     28 C22          3.8070     2.0680     1.7570 cd         1 H2E      -0.340200
     29 C23          4.7780     1.4730     2.6600 c          1 H2E       0.597500
     30 O3           4.2430     0.4140     0.1390 os         1 H2E      -0.240200
     31 N2           5.7350    -1.3910     0.4120 nh         1 H2E      -0.677400
     32 C26          6.8240    -2.1340     1.1330 c6         1 H2E       0.184300
     33 C27          6.9380    -3.6220     0.6890 c6         1 H2E       0.141100
     34 O4           6.9890    -3.7330    -0.7500 os         1 H2E      -0.441000
     35 C28          5.8070    -3.1970    -1.3840 c6         1 H2E       0.141100
     36 C29          5.6430    -1.6860    -1.0600 c6         1 H2E       0.184300
     37 O5           5.0240     1.9470     3.7570 o          1 H2E      -0.575100
     38 H1          -1.2000     1.8720    -3.0370 hc         1 H2E       0.068700
     39 H2          -0.0190     0.6400    -3.4310 hc         1 H2E       0.068700
     40 H3          -5.0480    -2.0870     0.7700 h1         1 H2E       0.044700
     41 H4          -7.1640    -1.4720    -1.3450 h1         1 H2E       0.043200
     42 H5          -7.4460    -2.3230     0.1690 h1         1 H2E       0.043200
     43 H7          -7.3550    -0.9800     2.3740 h1         1 H2E       0.039700
     44 H8          -6.9710     1.1520     3.5570 h1         1 H2E       0.052450
     45 H9          -6.5280     1.9730     2.0410 h1         1 H2E       0.052450
     46 H10         -8.3080     2.3600     0.3560 h1         1 H2E       0.052450
     47 H11         -9.9570     1.8040     0.7340 h1         1 H2E       0.052450
     48 H12          6.1450    -0.1620     2.8530 ha         1 H2E       0.208000
     49 H13         -3.1480     0.6390    -2.3930 ha         1 H2E       0.130000
     50 H14         -4.1030    -3.6320    -0.9800 hc         1 H2E       0.048700
     51 H15         -5.7610    -4.0990    -0.5670 hc         1 H2E       0.048700
     52 H16         -5.4390    -3.2170    -2.0750 hc         1 H2E       0.048700
     53 H17         -9.2700    -0.5620     0.5740 h1         1 H2E       0.039700
     54 H18         -8.8010     0.2770    -0.9110 h1         1 H2E       0.039700
     55 H19         -2.9020    -2.3370     0.7340 ha         1 H2E       0.119000
     56 H20         -0.4560    -2.0660     0.8060 ha         1 H2E       0.124000
     57 H22          3.4370     4.1140    -0.1800 ha         1 H2E       0.126000
     58 H23          1.8340     5.2070    -1.7250 ha         1 H2E       0.122000
     59 H24          0.0570     3.8760    -2.8310 ha         1 H2E       0.118000
     60 H25          3.3080     2.9530     2.1270 ha         1 H2E       0.214000
     61 H26          7.7900    -1.6360     0.9630 h1         1 H2E       0.063700
     62 H27          6.6470    -2.1360     2.2170 h1         1 H2E       0.063700
     63 H28          7.8450    -4.0700     1.1190 h1         1 H2E       0.058200
     64 H29          6.0720    -4.1870     1.0630 h1         1 H2E       0.058200
     65 H30          5.8850    -3.3390    -2.4710 h1         1 H2E       0.058200
     66 H31          4.9250    -3.7510    -1.0320 h1         1 H2E       0.058200
     67 H32          4.6760    -1.3610    -1.4690 h1         1 H2E       0.063700
     68 H33          6.4210    -1.1240    -1.5970 h1         1 H2E       0.063700
     69 H6          -5.7400    -0.3730     1.9780 h1         1 H2E       0.039700
@<TRIPOS>BOND
     1     1     2 ar  
     2     1     5 1   
     3     1    26 ar  
     4     2    16 1   
     5     2    23 ar  
     6     3     4 ar  
     7     3    16 1   
     8     3    19 ar  
     9     4     5 1   
    10     4    13 ar  
    11     5    38 1   
    12     5    39 1   
    13     6     7 1   
    14     6    14 1   
    15     6    20 1   
    16     6    40 1   
    17     7    21 1   
    18     7    41 1   
    19     7    42 1   
    20     8     9 1   
    21     8    21 1   
    22     8    43 1   
    23     8    69 1   
    24     9    22 1   
    25     9    44 1   
    26     9    45 1   
    27    10    15 1   
    28    10    22 1   
    29    10    46 1   
    30    10    47 1   
    31    11    12 2   
    32    11    29 1   
    33    11    48 1   
    34    12    30 1   
    35    12    31 1   
    36    13    17 ar  
    37    13    49 1   
    38    14    50 1   
    39    14    51 1   
    40    14    52 1   
    41    15    21 1   
    42    15    53 1   
    43    15    54 1   
    44    17    18 ar  
    45    17    20 1   
    46    18    19 ar  
    47    18    55 1   
    48    19    56 1   
    49    23    24 ar  
    50    23    27 1   
    51    24    25 ar  
    52    24    57 1   
    53    25    26 ar  
    54    25    58 1   
    55    26    59 1   
    56    27    28 2   
    57    27    30 1   
    58    28    29 1   
    59    28    60 1   
    60    29    37 2   
    61    31    32 1   
    62    31    36 1   
    63    32    33 1   
    64    32    61 1   
    65    32    62 1   
    66    33    34 1   
    67    33    63 1   
    68    33    64 1   
    69    34    35 1   
    70    35    36 1   
    71    35    65 1   
    72    35    66 1   
    73    36    67 1   
    74    36    68 1   
@<TRIPOS>SUBSTRUCTURE
     1 H2E         1 TEMP              0 ****  ****    0 ROOT
