@<TRIPOS>MOLECULE
H2G
   27    27     1     0     0
SMALL
No Charge or Current Charge


@<TRIPOS>ATOM
      1 N1          -1.3040    -0.2890    -0.0710 n7         1 H2G      -0.850400
      2 C4          -0.2820    -0.8880    -0.9380 c3         1 H2G       0.232100
      3 C5           1.0690    -0.6850    -0.3190 cc         1 H2G      -0.216300
      4 C6           3.3550     0.1530     0.3260 cc         1 H2G      -0.211300
      5 C7           2.9850    -0.9920     0.9850 cd         1 H2G      -0.140000
      6 C8           1.6960    -1.4660     0.6210 cd         1 H2G      -0.135000
      7 C1          -5.2000    -0.2050     0.0610 c3         1 H2G      -0.133100
      8 C2          -3.7510     0.1310     0.4670 c3         1 H2G       0.172300
      9 C3          -2.7070    -0.4790    -0.5220 c3         1 H2G       0.165800
     10 O1          -3.6220     1.5600     0.5400 oh         1 H2G      -0.640000
     11 S1           2.0850     0.6780    -0.7820 ss         1 H2G       0.236000
     12 C9           4.6390     0.9240     0.4610 c3         1 H2G      -0.019800
     13 H1          -1.2030    -0.7110     0.8580 hn         1 H2G       0.411000
     14 H3          -0.4590    -1.9660    -1.0610 h1         1 H2G       0.040200
     15 H4          -0.3010    -0.4290    -1.9370 h1         1 H2G       0.040200
     16 H5           3.6160    -1.4910     1.7150 ha         1 H2G       0.129000
     17 H6           1.2500    -2.3610     1.0450 ha         1 H2G       0.128000
     18 H8          -5.9130     0.2050     0.7850 hc         1 H2G       0.042367
     19 H9          -5.4340     0.2070    -0.9280 hc         1 H2G       0.042367
     20 H10         -3.5730    -0.3060     1.4590 h1         1 H2G       0.023700
     21 H11         -2.8520    -0.0280    -1.5130 h1         1 H2G       0.036700
     22 H12         -2.9190    -1.5530    -0.6220 h1         1 H2G       0.036700
     23 H13         -4.1780     1.8580     1.2910 ho         1 H2G       0.435000
     24 H14          5.1680     0.9730    -0.4980 hc         1 H2G       0.044367
     25 H15          4.4450     1.9510     0.7930 hc         1 H2G       0.044367
     26 H16          5.3090     0.4550     1.1920 hc         1 H2G       0.044367
     27 H7          -5.3440    -1.2910     0.0230 hc         1 H2G       0.042367
@<TRIPOS>BOND
     1     1     2 1   
     2     1     9 1   
     3     1    13 1   
     4     2     3 1   
     5     2    14 1   
     6     2    15 1   
     7     3     6 2   
     8     3    11 1   
     9     4     5 2   
    10     4    11 1   
    11     4    12 1   
    12     5     6 1   
    13     5    16 1   
    14     6    17 1   
    15     7     8 1   
    16     7    18 1   
    17     7    19 1   
    18     7    27 1   
    19     8     9 1   
    20     8    10 1   
    21     8    20 1   
    22     9    21 1   
    23     9    22 1   
    24    10    23 1   
    25    12    24 1   
    26    12    25 1   
    27    12    26 1   
@<TRIPOS>SUBSTRUCTURE
     1 H2G         1 TEMP              0 ****  ****    0 ROOT
