@<TRIPOS>MOLECULE
H2G
   27    27     1     0     0
SMALL
bcc


@<TRIPOS>ATOM
      1 N1          -1.3060    -0.3800     0.0940 n7         1 H2G      -0.795200
      2 C4          -0.3820    -1.2800    -0.5640 c3         1 H2G       0.232100
      3 C5           1.0230    -0.9850    -0.1590 cc         1 H2G      -0.071400
      4 C6           3.1550     0.1800     0.4210 cc         1 H2G      -0.066400
      5 C7           3.2730    -1.1750     0.3900 cd         1 H2G      -0.158000
      6 C8           2.0560    -1.8410     0.0630 cd         1 H2G      -0.153000
      7 C1          -5.0780     0.0450    -0.0080 c3         1 H2G      -0.133100
      8 C2          -3.6410     0.3520     0.3870 c3         1 H2G       0.149100
      9 C3          -2.6780    -0.5830    -0.3240 c3         1 H2G       0.165800
     10 O1          -3.2830     1.6810     0.0620 oh         1 H2G      -0.577800
     11 S1           1.5340     0.6520     0.0480 ss         1 H2G      -0.053800
     12 C9           4.1970     1.1940     0.7500 c3         1 H2G      -0.019800
     13 H1          -1.2390    -0.5180     1.0960 hn         1 H2G       0.355800
     14 H3          -0.5820    -2.3460    -0.3740 h1         1 H2G       0.040200
     15 H4          -0.4920    -1.1390    -1.6450 h1         1 H2G       0.040200
     16 H5           4.2000    -1.6900     0.6070 ha         1 H2G       0.147000
     17 H6           1.9560    -2.9160    -0.0040 ha         1 H2G       0.146000
     18 H8          -5.7770     0.7100     0.5040 hc         1 H2G       0.042367
     19 H9          -5.2230     0.1660    -1.0830 hc         1 H2G       0.042367
     20 H10         -3.5410     0.1850     1.4710 h1         1 H2G       0.023700
     21 H11         -2.7450    -0.4090    -1.4040 h1         1 H2G       0.036700
     22 H12         -3.0230    -1.6150    -0.1560 h1         1 H2G       0.036700
     23 H13         -3.9160     2.2690     0.4840 ho         1 H2G       0.396000
     24 H14          4.3250     1.9250    -0.0500 hc         1 H2G       0.044367
     25 H15          3.9540     1.7470     1.6590 hc         1 H2G       0.044367
     26 H16          5.1560     0.7020     0.9080 hc         1 H2G       0.044367
     27 H7          -5.3480    -0.9770     0.2590 hc         1 H2G       0.042367
@<TRIPOS>BOND
     1     1     2 1   
     2     1     9 1   
     3     1    13 1   
     4     2     3 1   
     5     2    14 1   
     6     2    15 1   
     7     3     6 2   
     8     3    11 1   
     9     4     5 2   
    10     4    11 1   
    11     4    12 1   
    12     5     6 1   
    13     5    16 1   
    14     6    17 1   
    15     7     8 1   
    16     7    18 1   
    17     7    19 1   
    18     7    27 1   
    19     8     9 1   
    20     8    10 1   
    21     8    20 1   
    22     9    21 1   
    23     9    22 1   
    24    10    23 1   
    25    12    24 1   
    26    12    25 1   
    27    12    26 1   
@<TRIPOS>SUBSTRUCTURE
     1 H2G         1 TEMP              0 ****  ****    0 ROOT
