@<TRIPOS>MOLECULE
H2H
   52    54     1     0     0
SMALL
No Charge or Current Charge


@<TRIPOS>ATOM
      1 C7           3.4970    -0.4320     3.7930 cc         1 H2H      -0.204300
      2 C8           3.8030    -0.2010     5.2560 c5         1 H2H       0.178300
      3 C9           5.8010    -0.5010     3.9890 c          1 H2H       0.583800
      4 C11          6.3860     1.3620     6.8470 c3         1 H2H      -0.077400
      5 C12          7.2280     1.5940     8.1560 c3         1 H2H      -0.300000
      6 C13          6.5050     0.9940     9.3770 c          1 H2H       0.590100
      7 C15          8.6730     1.0070     7.9530 c3         1 H2H      -0.093100
      8 C19          4.4340    -0.7990     1.8470 cc         1 H2H      -0.109000
      9 C20          3.0540    -0.7750     1.6280 cd         1 H2H      -0.099000
     10 C21          2.4420    -0.5290     2.9320 cd         1 H2H      -0.103000
     11 C22          2.3890    -0.9660     0.3110 ca         1 H2H      -0.067000
     12 C23          3.1850    -1.1950    -0.8350 ca         1 H2H      -0.054000
     13 N1           5.2980    -0.2600     5.2760 n          1 H2H      -0.433800
     14 C24          2.5990    -1.3810    -2.0990 ca         1 H2H      -0.155000
     15 C25          1.2080    -1.3440    -2.2530 ca         1 H2H       0.162100
     16 C26          0.3970    -1.1180    -1.1260 ca         1 H2H      -0.236000
     17 C27          0.9800    -0.9320     0.1380 ca         1 H2H       0.207000
     18 O4           5.3010     1.1070     9.5540 o          1 H2H      -0.640100
     19 N2           7.2450     0.2130    10.2500 ns         1 H2H      -0.343400
     20 O5           6.5810    -0.5250    11.3010 oh         1 H2H      -0.433100
     21 S1           7.4030     3.3810     8.5080 s6         1 H2H       1.082000
     22 O18          6.9760    -0.6110     3.6580 o          1 H2H      -0.532000
     23 N6           4.6760    -0.5860     3.1820 n          1 H2H       0.024200
     24 F28          0.1470    -0.7200     1.1780 f          1 H2H      -0.185000
     25 O29          0.6910    -1.5330    -3.5180 os         1 H2H      -0.345100
     26 H82          3.4310     0.7770     5.5900 h1         1 H2H       0.069700
     27 H81          3.3580    -0.9850     5.8830 h1         1 H2H       0.069700
     28 H102         5.6900    -0.6510     7.2960 h1         1 H2H       0.067200
     29 H101         7.1260    -0.6050     6.2600 h1         1 H2H       0.067200
     30 H112         6.8690     1.8670     6.0000 hc         1 H2H       0.071200
     31 H111         5.3960     1.8220     6.9520 hc         1 H2H       0.071200
     32 H142         5.1790     3.5990     9.3330 h1         1 H2H       0.114367
     33 H141         5.8790     5.1610     8.7820 h1         1 H2H       0.114367
     34 H143         5.3000     3.9720     7.5650 h1         1 H2H       0.114367
     35 H153         9.3410     1.2640     8.7860 hc         1 H2H       0.065367
     36 H152         8.6610    -0.0870     7.8600 hc         1 H2H       0.065367
     37 H151         9.1320     1.4050     7.0390 hc         1 H2H       0.065367
     38 H19          5.2910    -0.9460     1.2010 h4         1 H2H       0.167000
     39 H21          1.3930    -0.4390     3.1920 ha         1 H2H       0.149000
     40 H23          4.2680    -1.2310    -0.7620 ha         1 H2H       0.119000
     41 H24          3.2300    -1.5550    -2.9660 ha         1 H2H       0.133000
     42 H26         -0.6840    -1.0830    -1.2060 ha         1 H2H       0.135000
     43 H302        -0.9160    -1.6850    -4.8460 h1         1 H2H       0.045033
     44 H301        -1.2370    -2.3010    -3.2120 h1         1 H2H       0.045033
     45 H303        -1.1580    -0.5430    -3.5080 h1         1 H2H       0.045033
     46 H1           8.2130    -0.0320    10.0520 hn         1 H2H       0.375500
     47 HO5          5.6270    -0.3730    11.0840 ho         1 H2H       0.479000
     48 C10          6.1620    -0.1190     6.4600 c3         1 H2H       0.132000
     49 C14          5.7570     4.0990     8.5510 c3         1 H2H      -0.324100
     50 O2           8.1030     3.9950     7.3730 o          1 H2H      -0.510000
     51 O3           7.9760     3.5210     9.8510 o          1 H2H      -0.510000
     52 C30         -0.7240    -1.5140    -3.7800 c3         1 H2H       0.147900
@<TRIPOS>BOND
     1     1     2 1   
     2     1    10 2   
     3     1    23 1   
     4     2    13 1   
     5     2    26 1   
     6     2    27 1   
     7     3    13 1   
     8     3    22 2   
     9     3    23 1   
    10     4     5 1   
    11     4    30 1   
    12     4    31 1   
    13     4    48 1   
    14     5     6 1   
    15     5     7 1   
    16     5    21 1   
    17     6    18 2   
    18     6    19 1   
    19     7    35 1   
    20     7    36 1   
    21     7    37 1   
    22     8     9 2   
    23     8    23 1   
    24     8    38 1   
    25     9    10 1   
    26     9    11 1   
    27    10    39 1   
    28    11    12 ar  
    29    11    17 ar  
    30    12    14 ar  
    31    12    40 1   
    32    13    48 1   
    33    14    15 ar  
    34    14    41 1   
    35    15    16 ar  
    36    15    25 1   
    37    16    17 ar  
    38    16    42 1   
    39    17    24 1   
    40    19    20 1   
    41    19    46 1   
    42    20    47 1   
    43    21    49 1   
    44    21    50 2   
    45    21    51 2   
    46    25    52 1   
    47    28    48 1   
    48    29    48 1   
    49    32    49 1   
    50    33    49 1   
    51    34    49 1   
    52    43    52 1   
    53    44    52 1   
    54    45    52 1   
@<TRIPOS>SUBSTRUCTURE
     1 H2H         1 TEMP              0 ****  ****    0 ROOT
