@<TRIPOS>MOLECULE
H2H
   52    54     1     0     0
SMALL
abcg2


@<TRIPOS>ATOM
      1 C7           3.6040    -0.3900     3.8130 cc         1 H2H      -0.204300
      2 C8           3.9570    -0.1740     5.2500 c5         1 H2H       0.178300
      3 C9           5.9060    -0.5350     3.9610 c          1 H2H       0.583800
      4 C11          6.4580     1.3020     6.7710 c3         1 H2H      -0.077400
      5 C12          7.1730     1.4500     8.1230 c3         1 H2H      -0.300000
      6 C13          6.2530     0.9580     9.2420 c          1 H2H       0.590100
      7 C15          8.5670     0.8140     8.1160 c3         1 H2H      -0.093100
      8 C19          4.5260    -0.8010     1.7900 cc         1 H2H      -0.109000
      9 C20          3.1540    -0.7280     1.6280 cd         1 H2H      -0.099000
     10 C21          2.5710    -0.4680     2.9260 cd         1 H2H      -0.103000
     11 C22          2.4540    -0.8610     0.3470 ca         1 H2H      -0.067000
     12 C23          3.0880    -0.5510    -0.8700 ca         1 H2H      -0.054000
     13 N1           5.4180    -0.2940     5.2050 n          1 H2H      -0.433800
     14 C24          2.4580    -0.6870    -2.0910 ca         1 H2H      -0.155000
     15 C25          1.1360    -1.1390    -2.1520 ca         1 H2H       0.162100
     16 C26          0.4670    -1.4530    -0.9710 ca         1 H2H      -0.236000
     17 C27          1.1420    -1.3070     0.2300 ca         1 H2H       0.207000
     18 O4           5.0550     1.2620     9.2990 o          1 H2H      -0.640100
     19 N2           6.7860     0.1640    10.1670 ns         1 H2H      -0.343400
     20 O5           5.9840    -0.2670    11.2110 oh         1 H2H      -0.433100
     21 S1           7.4720     3.2520     8.4630 s6         1 H2H       1.082000
     22 O18          7.0640    -0.6800     3.6100 o          1 H2H      -0.532000
     23 N6           4.7770    -0.5920     3.1230 n          1 H2H       0.024200
     24 F28          0.4530    -1.6490     1.3520 f          1 H2H      -0.185000
     25 O29          0.5850    -1.2370    -3.3870 os         1 H2H      -0.345100
     26 H82          3.6550     0.8100     5.6180 h1         1 H2H       0.069700
     27 H81          3.5340    -0.9320     5.9140 h1         1 H2H       0.069700
     28 H102         5.7930    -0.7260     7.1900 h1         1 H2H       0.067200
     29 H101         7.2090    -0.6400     6.1430 h1         1 H2H       0.067200
     30 H112         7.0450     1.8050     6.0030 hc         1 H2H       0.071200
     31 H111         5.4840     1.7820     6.8260 hc         1 H2H       0.071200
     32 H142         5.1680     3.6540     8.8080 h1         1 H2H       0.114367
     33 H141         6.1390     5.1340     8.5050 h1         1 H2H       0.114367
     34 H143         5.6870     4.0730     7.1380 h1         1 H2H       0.114367
     35 H153         9.1400     1.0730     9.0060 hc         1 H2H       0.065367
     36 H152         8.4780    -0.2700     8.0640 hc         1 H2H       0.065367
     37 H151         9.1200     1.1520     7.2420 hc         1 H2H       0.065367
     38 H19          5.3190    -0.9920     1.0880 h4         1 H2H       0.167000
     39 H21          1.5240    -0.3470     3.1430 ha         1 H2H       0.149000
     40 H23          4.1040    -0.1810    -0.8430 ha         1 H2H       0.119000
     41 H24          2.9710    -0.4340    -3.0090 ha         1 H2H       0.133000
     42 H26         -0.5510    -1.8110    -0.9550 ha         1 H2H       0.135000
     43 H302        -1.0020    -1.6740    -4.5540 h1         1 H2H       0.045033
     44 H301        -0.8820    -2.6920    -3.0960 h1         1 H2H       0.045033
     45 H303        -1.4440    -1.0020    -2.9640 h1         1 H2H       0.045033
     46 H1           7.7530    -0.0960    10.2750 hn         1 H2H       0.375500
     47 HO5          5.1250     0.1550    11.0010 ho         1 H2H       0.479000
     48 C10          6.2580    -0.1670     6.3750 c3         1 H2H       0.132000
     49 C14          5.9400     4.1080     8.1940 c3         1 H2H      -0.324100
     50 O2           8.4360     3.7250     7.4860 o          1 H2H      -0.510000
     51 O3           7.8200     3.3660     9.8700 o          1 H2H      -0.510000
     52 C30         -0.7690    -1.6800    -3.4920 c3         1 H2H       0.147900
@<TRIPOS>BOND
     1     1     2 1   
     2     1    10 2   
     3     1    23 1   
     4     2    13 1   
     5     2    26 1   
     6     2    27 1   
     7     3    13 1   
     8     3    22 2   
     9     3    23 1   
    10     4     5 1   
    11     4    30 1   
    12     4    31 1   
    13     4    48 1   
    14     5     6 1   
    15     5     7 1   
    16     5    21 1   
    17     6    18 2   
    18     6    19 1   
    19     7    35 1   
    20     7    36 1   
    21     7    37 1   
    22     8     9 2   
    23     8    23 1   
    24     8    38 1   
    25     9    10 1   
    26     9    11 1   
    27    10    39 1   
    28    11    12 ar  
    29    11    17 ar  
    30    12    14 ar  
    31    12    40 1   
    32    13    48 1   
    33    14    15 ar  
    34    14    41 1   
    35    15    16 ar  
    36    15    25 1   
    37    16    17 ar  
    38    16    42 1   
    39    17    24 1   
    40    19    20 1   
    41    19    46 1   
    42    20    47 1   
    43    21    49 1   
    44    21    50 2   
    45    21    51 2   
    46    25    52 1   
    47    28    48 1   
    48    29    48 1   
    49    32    49 1   
    50    33    49 1   
    51    34    49 1   
    52    43    52 1   
    53    44    52 1   
    54    45    52 1   
@<TRIPOS>SUBSTRUCTURE
     1 H2H         1 TEMP              0 ****  ****    0 ROOT
