@<TRIPOS>MOLECULE
H2J
   33    34     1     0     0
SMALL
bcc


@<TRIPOS>ATOM
      1 N1          -1.2760    -0.7220    -0.1300 ns         1 H2J      -0.481100
      2 C4           3.0960    -0.5540     1.2630 ca         1 H2J      -0.072000
      3 C5           2.4360    -0.8670     0.0850 ca         1 H2J      -0.114300
      4 C6           1.0250    -1.3670     0.0940 c3         1 H2J      -0.105100
      5 C7           0.0080    -0.2740    -0.1970 c          1 H2J       0.672100
      6 C8          -2.4690    -0.0320    -0.3430 ca         1 H2J       0.088600
      7 C10         -3.7970     1.8900    -0.9070 ca         1 H2J      -0.094000
      8 C13         -3.6460    -0.7650    -0.1690 ca         1 H2J      -0.189000
      9 C15          4.4220    -0.2120    -1.1340 ca         1 H2J      -0.189000
     10 C1           7.0590     0.8410     1.1320 c3         1 H2J       0.125700
     11 C2           5.0750     0.1000     0.0610 ca         1 H2J       0.148100
     12 C3           4.4030    -0.0760     1.2670 ca         1 H2J      -0.189000
     13 C9          -2.5500     1.3110    -0.7160 ca         1 H2J      -0.152000
     14 C11         -4.9720     1.1750    -0.7380 ca         1 H2J      -0.151000
     15 C12         -4.8700    -0.1560    -0.3670 ca         1 H2J       0.058400
     16 CL1         -6.3140    -1.0900    -0.1420 cl         1 H2J      -0.114400
     17 O2           0.3180     0.8690    -0.4650 o          1 H2J      -0.558100
     18 C14          3.1240    -0.6860    -1.1140 ca         1 H2J      -0.072000
     19 H1          -1.3870    -1.6970     0.1050 hn         1 H2J       0.315500
     20 H2           2.5910    -0.6880     2.2130 ha         1 H2J       0.129000
     21 H3           0.8900    -2.1590    -0.6490 hc         1 H2J       0.064200
     22 H4           0.7820    -1.8180     1.0600 hc         1 H2J       0.064200
     23 H5          -3.8510     2.9310    -1.1960 ha         1 H2J       0.138000
     24 H6          -3.5980    -1.8080     0.1200 ha         1 H2J       0.141000
     25 H7           4.9410    -0.0810    -2.0750 ha         1 H2J       0.140500
     26 H8           8.0430     1.1810     0.8200 h1         1 H2J       0.040700
     27 H9           6.5850     1.6300     1.7210 h1         1 H2J       0.040700
     28 H10          7.1770    -0.0450     1.7620 h1         1 H2J       0.040700
     29 H11          4.8720     0.1480     2.2150 ha         1 H2J       0.140500
     30 H12         -1.6620     1.9020    -0.8600 ha         1 H2J       0.171000
     31 H13         -5.9350     1.6400    -0.8920 ha         1 H2J       0.150000
     32 H14          2.6410    -0.9270    -2.0540 ha         1 H2J       0.129000
     33 O1           6.3380     0.5560    -0.0500 os         1 H2J      -0.317900
@<TRIPOS>BOND
     1     1     5 1   
     2     1     6 1   
     3     1    19 1   
     4     2     3 ar  
     5     2    12 ar  
     6     2    20 1   
     7     3     4 1   
     8     3    18 ar  
     9     4     5 1   
    10     4    21 1   
    11     4    22 1   
    12     5    17 2   
    13     6     8 ar  
    14     6    13 ar  
    15     7    13 ar  
    16     7    14 ar  
    17     7    23 1   
    18     8    15 ar  
    19     8    24 1   
    20     9    11 ar  
    21     9    18 ar  
    22     9    25 1   
    23    10    26 1   
    24    10    27 1   
    25    10    28 1   
    26    10    33 1   
    27    11    12 ar  
    28    11    33 1   
    29    12    29 1   
    30    13    30 1   
    31    14    15 ar  
    32    14    31 1   
    33    15    16 1   
    34    18    32 1   
@<TRIPOS>SUBSTRUCTURE
     1 H2J         1 TEMP              0 ****  ****    0 ROOT
