@<TRIPOS>MOLECULE
H2J
   33    34     1     0     0
SMALL
No Charge or Current Charge


@<TRIPOS>ATOM
      1 N1          -0.9250    -0.7800    -0.4760 ns         1 H2J      -0.155000
      2 C4           2.5910    -0.9350     0.7500 ca         1 H2J      -0.054000
      3 C5           2.4170    -1.1670    -0.6280 ca         1 H2J      -0.114300
      4 C6           1.1680    -1.8840    -1.1370 c3         1 H2J      -0.105100
      5 C7           0.0520    -0.8790    -1.4590 c          1 H2J       0.605100
      6 C8          -2.1010     0.0120    -0.3690 ca         1 H2J      -0.004000
      7 C10         -3.7140     1.6600    -1.1910 ca         1 H2J      -0.076000
      8 C13         -2.8650    -0.1180     0.8060 ca         1 H2J      -0.171000
      9 C15          4.5440    -0.0580    -1.0640 ca         1 H2J      -0.171000
     10 C1           6.1410     1.1190     2.0930 c3         1 H2J       0.148900
     11 C2           4.7210     0.1730     0.3090 ca         1 H2J       0.148100
     12 C3           3.7370    -0.2680     1.2190 ca         1 H2J      -0.171000
     13 C9          -2.5370     0.9100    -1.3700 ca         1 H2J      -0.134000
     14 C11         -4.4650     1.5200    -0.0130 ca         1 H2J      -0.133000
     15 C12         -4.0390     0.6310     0.9840 ca         1 H2J       0.150000
     16 Cl1         -4.9770     0.4530     2.4600 cl         1 H2J      -0.206000
     17 O2           0.0590    -0.2260    -2.4960 o          1 H2J      -0.558100
     18 C14          3.3990    -0.7240    -1.5340 ca         1 H2J      -0.054000
     19 H1          -0.7700    -1.3860     0.3190 hn         1 H2J       0.149000
     20 H2           1.8380    -1.2690     1.4610 ha         1 H2J       0.111000
     21 H3           1.4120    -2.4410    -2.0490 hc         1 H2J       0.064200
     22 H4           0.8230    -2.5860    -0.3690 hc         1 H2J       0.064200
     23 H5          -4.0430     2.3490    -1.9660 ha         1 H2J       0.120000
     24 H6          -2.5500    -0.8030     1.5900 ha         1 H2J       0.123000
     25 H7           5.2990     0.2810    -1.7690 ha         1 H2J       0.122500
     26 H8           7.0980     1.6460     2.1880 h1         1 H2J       0.040700
     27 H9           5.3570     1.7560     2.5230 h1         1 H2J       0.040700
     28 H10          6.2030     0.1930     2.6780 h1         1 H2J       0.040700
     29 H11          3.8420    -0.1050     2.2880 ha         1 H2J       0.122500
     30 H12         -1.9830     1.0420    -2.2940 ha         1 H2J       0.153000
     31 H13         -5.3750     2.0990     0.1270 ha         1 H2J       0.132000
     32 H14          3.2760    -0.8930    -2.6020 ha         1 H2J       0.111000
     33 O1           5.8650     0.8320     0.7100 os         1 H2J      -0.341100
@<TRIPOS>BOND
     1     1     5 1   
     2     1     6 1   
     3     1    19 1   
     4     2     3 ar  
     5     2    12 ar  
     6     2    20 1   
     7     3     4 1   
     8     3    18 ar  
     9     4     5 1   
    10     4    21 1   
    11     4    22 1   
    12     5    17 2   
    13     6     8 ar  
    14     6    13 ar  
    15     7    13 ar  
    16     7    14 ar  
    17     7    23 1   
    18     8    15 ar  
    19     8    24 1   
    20     9    11 ar  
    21     9    18 ar  
    22     9    25 1   
    23    10    26 1   
    24    10    27 1   
    25    10    28 1   
    26    10    33 1   
    27    11    12 ar  
    28    11    33 1   
    29    12    29 1   
    30    13    30 1   
    31    14    15 ar  
    32    14    31 1   
    33    15    16 1   
    34    18    32 1   
@<TRIPOS>SUBSTRUCTURE
     1 H2J         1 TEMP              0 ****  ****    0 ROOT
