@<TRIPOS>MOLECULE
H2K
   40    42     1     0     0
SMALL
abcg2


@<TRIPOS>ATOM
      1 N6          -7.8930    -2.1860    -0.5830 n1         1 H2K      -0.429000
      2 C15         -6.7770    -1.9600    -0.4080 cg         1 H2K       0.230000
      3 C13         -5.3950    -1.6640    -0.1980 ca         1 H2K       0.322000
      4 N4          -4.6550    -2.5780     0.4390 nb         1 H2K      -0.573000
      5 C12         -3.3950    -2.2970     0.6290 ca         1 H2K       0.235900
      6 C14         -4.8470    -0.4730    -0.6430 ca         1 H2K       0.381900
      7 N5          -3.5680    -0.1850    -0.4570 nb         1 H2K      -0.656000
      8 C11         -2.8330    -1.0770     0.1790 ca         1 H2K       0.475900
      9 N3          -1.5020    -0.8720     0.4140 ns         1 H2K      -0.332900
     10 C10         -0.7690     0.2860     0.1930 c          1 H2K       0.665100
     11 O2          -1.2520     1.3330    -0.1710 o          1 H2K      -0.542100
     12 N2           0.5570     0.0960     0.4560 ns         1 H2K      -0.159000
     13 C9           1.5450     1.0710     0.2850 ca         1 H2K      -0.048000
     14 C16          1.3530     2.3980     0.6420 ca         1 H2K      -0.075000
     15 C1           2.3770     3.3120     0.4510 ca         1 H2K       0.105000
     16 CL           2.1160     4.9700     0.8920 cl         1 H2K      -0.192000
     17 C4           2.7850     0.6590    -0.2370 ca         1 H2K       0.108100
     18 C3           3.7990     1.5930    -0.4030 ca         1 H2K      -0.171000
     19 C2           3.5960     2.9260    -0.0700 ca         1 H2K      -0.079000
     20 O1           2.8730    -0.6460    -0.5460 os         1 H2K      -0.372100
     21 C5           4.1310    -1.2130    -0.9260 c5         1 H2K       0.135300
     22 C8           5.0500    -1.3710     0.2860 c5         1 H2K       0.109800
     23 N1           4.5360    -2.5170     1.0180 n7         1 H2K      -0.826400
     24 C7           4.0840    -3.4640    -0.0050 c5         1 H2K       0.139800
     25 C6           3.8680    -2.6620    -1.3130 c5         1 H2K      -0.111400
     26 H13         -2.7870    -3.0310     1.1480 h4         1 H2K       0.032100
     27 H14         -5.4510     0.2600    -1.1650 h4         1 H2K       0.047100
     28 H12         -1.0210    -1.6520     0.8380 hn         1 H2K       0.157000
     29 H11          0.8930    -0.8480     0.5730 hn         1 H2K       0.160000
     30 H15          0.4180     2.7170     1.0750 ha         1 H2K       0.155000
     31 H2           4.7600     1.3070    -0.8060 ha         1 H2K       0.123000
     32 H1           4.3920     3.6430    -0.2160 ha         1 H2K       0.133000
     33 H3           4.5690    -0.6350    -1.7440 h1         1 H2K       0.067700
     34 H9           6.0620    -1.5790    -0.0760 h1         1 H2K       0.069200
     35 H10          5.1110    -0.4890     0.9260 h1         1 H2K       0.069200
     36 H8           3.7390    -2.2170     1.5630 hn         1 H2K       0.405000
     37 H6           4.8440    -4.2320    -0.1630 h1         1 H2K       0.053700
     38 H7           3.1800    -3.9730     0.3290 h1         1 H2K       0.053700
     39 H4           2.8730    -2.7930    -1.7410 hc         1 H2K       0.065700
     40 H5           4.5870    -2.9620    -2.0760 hc         1 H2K       0.065700
@<TRIPOS>BOND
     1     1     2 3   
     2     2     3 1   
     3     3     4 ar  
     4     3     6 ar  
     5     4     5 ar  
     6     5     8 ar  
     7     5    26 1   
     8     6     7 ar  
     9     6    27 1   
    10     7     8 ar  
    11     8     9 1   
    12     9    10 1   
    13     9    28 1   
    14    10    11 2   
    15    10    12 1   
    16    12    13 1   
    17    12    29 1   
    18    13    14 ar  
    19    13    17 ar  
    20    14    15 ar  
    21    14    30 1   
    22    15    16 1   
    23    15    19 ar  
    24    17    18 ar  
    25    17    20 1   
    26    18    19 ar  
    27    18    31 1   
    28    19    32 1   
    29    20    21 1   
    30    21    22 1   
    31    21    25 1   
    32    21    33 1   
    33    22    23 1   
    34    22    34 1   
    35    22    35 1   
    36    23    24 1   
    37    23    36 1   
    38    24    25 1   
    39    24    37 1   
    40    24    38 1   
    41    25    39 1   
    42    25    40 1   
@<TRIPOS>SUBSTRUCTURE
     1 H2K         1 TEMP              0 ****  ****    0 ROOT
