@<TRIPOS>MOLECULE
H2K
   40    42     1     0     0
SMALL
No Charge or Current Charge


@<TRIPOS>ATOM
      1 N6          -8.2350    -2.0120     0.1340 n1         1 H2K      -0.429000
      2 C15         -7.0800    -1.8250     0.1120 cg         1 H2K       0.230000
      3 C13         -5.6610    -1.5820     0.0800 ca         1 H2K       0.322000
      4 N4          -4.8260    -2.5960     0.4640 nb         1 H2K      -0.573000
      5 C12         -3.4960    -2.3050     0.4120 ca         1 H2K       0.235900
      6 C14         -5.1660    -0.3210    -0.3510 ca         1 H2K       0.381900
      7 N5          -3.8320    -0.0330    -0.4040 nb         1 H2K      -0.656000
      8 C11         -3.0060    -1.0300     0.0040 ca         1 H2K       0.475900
      9 N3          -1.6310    -0.7640    -0.1100 ns         1 H2K      -0.332900
     10 C10         -0.9360     0.4030     0.1160 c          1 H2K       0.665100
     11 O2          -1.4480     1.4290     0.5420 o          1 H2K      -0.542100
     12 N2           0.4110     0.2570    -0.1730 ns         1 H2K      -0.159000
     13 C9           1.5200     1.1510    -0.1020 ca         1 H2K      -0.048000
     14 C16          1.3900     2.5070     0.2820 ca         1 H2K      -0.075000
     15 C1           2.5160     3.3400     0.3300 ca         1 H2K       0.105000
     16 Cl           2.3410     5.0240     0.8080 cl         1 H2K      -0.192000
     17 C4           2.7970     0.6370    -0.4330 ca         1 H2K       0.108100
     18 C3           3.9260     1.4960    -0.3930 ca         1 H2K      -0.171000
     19 C2           3.7800     2.8390    -0.0070 ca         1 H2K      -0.079000
     20 O1           2.8500    -0.7050    -0.8120 os         1 H2K      -0.372100
     21 C5           4.1700    -1.3110    -0.6960 c5         1 H2K       0.135300
     22 C8           4.5950    -1.4070     0.8170 c5         1 H2K       0.109800
     23 N1           4.6820    -2.8600     1.1400 n7         1 H2K      -0.826400
     24 C7           5.0200    -3.4820    -0.1550 c5         1 H2K       0.139800
     25 C6           4.0120    -2.8020    -1.1040 c5         1 H2K      -0.111400
     26 H13         -2.8100    -3.1000     0.7010 h4         1 H2K       0.032100
     27 H14         -5.8470     0.4700    -0.6630 h4         1 H2K       0.047100
     28 H12         -1.0740    -1.5570    -0.3960 hn         1 H2K       0.157000
     29 H11          0.6670    -0.6650    -0.5040 hn         1 H2K       0.160000
     30 H15          0.4290     2.9360     0.5420 ha         1 H2K       0.155000
     31 H2           4.9220     1.1610    -0.6610 ha         1 H2K       0.123000
     32 H1           4.6470     3.4950     0.0240 ha         1 H2K       0.133000
     33 H3           4.9100    -0.8080    -1.3310 h1         1 H2K       0.067700
     34 H9           5.5750    -0.9280     0.9510 h1         1 H2K       0.069200
     35 H10          3.8910    -0.8940     1.4890 h1         1 H2K       0.069200
     36 H8           3.7430    -3.1860     1.4030 hn         1 H2K       0.405000
     37 H6           6.0580    -3.2580    -0.4430 h1         1 H2K       0.053700
     38 H7           4.9000    -4.5750    -0.1310 h1         1 H2K       0.053700
     39 H4           2.9940    -3.1730    -0.9330 hc         1 H2K       0.065700
     40 H5           4.2540    -2.9730    -2.1580 hc         1 H2K       0.065700
@<TRIPOS>BOND
     1     1     2 3   
     2     2     3 1   
     3     3     4 ar  
     4     3     6 ar  
     5     4     5 ar  
     6     5     8 ar  
     7     5    26 1   
     8     6     7 ar  
     9     6    27 1   
    10     7     8 ar  
    11     8     9 1   
    12     9    10 1   
    13     9    28 1   
    14    10    11 2   
    15    10    12 1   
    16    12    13 1   
    17    12    29 1   
    18    13    14 ar  
    19    13    17 ar  
    20    14    15 ar  
    21    14    30 1   
    22    15    16 1   
    23    15    19 ar  
    24    17    18 ar  
    25    17    20 1   
    26    18    19 ar  
    27    18    31 1   
    28    19    32 1   
    29    20    21 1   
    30    21    22 1   
    31    21    25 1   
    32    21    33 1   
    33    22    23 1   
    34    22    34 1   
    35    22    35 1   
    36    23    24 1   
    37    23    36 1   
    38    24    25 1   
    39    24    37 1   
    40    24    38 1   
    41    25    39 1   
    42    25    40 1   
@<TRIPOS>SUBSTRUCTURE
     1 H2K         1 TEMP              0 ****  ****    0 ROOT
