@<TRIPOS>MOLECULE
H2L
   49    52     1     0     0
SMALL
No Charge or Current Charge


@<TRIPOS>ATOM
      1 C10         75.9730   121.6470    63.9180 c3         1 H2L       0.000800
      2 C15         76.3320   119.0720    64.2600 ca         1 H2L      -0.095800
      3 C17         74.8660   117.1630    64.1240 ca         1 H2L      -0.139000
      4 C22         74.1570   126.9210    62.8630 ca         1 H2L      -0.047000
      5 C24         72.7130   128.1130    64.4240 ca         1 H2L      -0.077000
      6 C26         71.7520   129.7570    69.6840 cc         1 H2L       0.544300
      7 C28         71.2700   130.4700    71.7310 cd         1 H2L       0.303900
      8 C02         72.3410   128.9380    67.4330 c          1 H2L       0.668100
      9 C04         73.5870   127.8030    65.4910 ca         1 H2L      -0.028000
     10 C05         74.7470   127.0490    65.2250 ca         1 H2L      -0.073000
     11 C06         75.0400   126.6070    63.9160 ca         1 H2L      -0.276500
     12 C09         76.7500   122.9800    63.9540 c3         1 H2L       0.196800
     13 C11         76.8070   120.4260    64.2290 cc         1 H2L      -0.146400
     14 C12         78.1650   120.3560    64.5430 cd         1 H2L      -0.159100
     15 C14         77.3850   118.2630    64.5800 ca         1 H2L      -0.046200
     16 C16         75.0480   118.5580    64.0230 ca         1 H2L      -0.062000
     17 C18         75.9550   116.3220    64.4550 ca         1 H2L      -0.090000
     18 C19         77.2340   116.8730    64.6870 ca         1 H2L      -0.127000
     19 C23         73.0000   127.6720    63.1210 ca         1 H2L      -0.101000
     20 C29         70.1760   130.9700    71.0650 cc         1 H2L      -0.310000
     21 N08         75.8570   124.1060    63.6300 n7         1 H2L      -0.862300
     22 N13         78.5350   119.0060    64.7630 na         1 H2L      -0.220700
     23 N25         72.5410   129.1040    68.7770 ns         1 H2L      -0.485400
     24 N27         72.1720   129.7750    70.9360 nd         1 H2L      -0.711000
     25 O01         71.3700   129.3830    66.8430 o          1 H2L      -0.603100
     26 S07         76.5220   125.6350    63.5860 sy         1 H2L       1.147600
     27 S30         70.2350   130.5790    69.3710 ss         1 H2L       0.059600
     28 H1          75.1410   121.7020    64.6300 hc         1 H2L       0.057700
     29 H2          75.5250   121.5300    62.9230 hc         1 H2L       0.057700
     30 H3          73.8840   116.7320    63.9460 ha         1 H2L       0.112000
     31 H4          74.3630   126.5830    61.8480 ha         1 H2L       0.135000
     32 H5          71.8080   128.6920    64.5800 ha         1 H2L       0.152000
     33 H6          71.4640   130.5800    72.7910 h4         1 H2L       0.041100
     34 H7          75.4240   126.8080    66.0440 ha         1 H2L       0.135000
     35 H8          77.5730   122.9260    63.2280 h1         1 H2L       0.051700
     36 H9          77.1920   123.1040    64.9530 h1         1 H2L       0.051700
     37 H10         78.8930   121.1590    64.6250 h4         1 H2L       0.211000
     38 H11         74.2180   119.2140    63.7690 ha         1 H2L       0.112000
     39 H12         75.8070   115.2470    64.5310 ha         1 H2L       0.111000
     40 H13         78.0770   116.2350    64.9420 ha         1 H2L       0.114000
     41 H14         72.3210   127.9130    62.3060 ha         1 H2L       0.124000
     42 H15         69.3470   131.5390    71.4610 h4         1 H2L       0.161000
     43 H16         74.0910   127.9210    67.4740 hn         1 H2L       0.158000
     44 H17         75.1450   124.2130    64.3500 hn         1 H2L       0.480000
     45 H18         79.4570   118.6550    65.0070 hn         1 H2L       0.351000
     46 H19         73.3810   128.6920    69.1510 hn         1 H2L       0.339500
     47 N03         73.3630   128.2140    66.8370 ns         1 H2L      -0.152000
     48 O20         76.9480   125.8470    62.1990 o          1 H2L      -0.532000
     49 O21         77.4370   125.7260    64.7260 o          1 H2L      -0.532000
@<TRIPOS>BOND
     1     1    12 1   
     2     1    13 1   
     3     1    28 1   
     4     1    29 1   
     5     2    13 1   
     6     2    15 ar  
     7     2    16 ar  
     8     3    16 ar  
     9     3    17 ar  
    10     3    30 1   
    11     4    11 ar  
    12     4    19 ar  
    13     4    31 1   
    14     5     9 ar  
    15     5    19 ar  
    16     5    32 1   
    17     6    23 1   
    18     6    24 2   
    19     6    27 1   
    20     7    20 2   
    21     7    24 1   
    22     7    33 1   
    23     8    23 1   
    24     8    25 2   
    25     8    47 1   
    26     9    10 ar  
    27     9    47 1   
    28    10    11 ar  
    29    10    34 1   
    30    11    26 1   
    31    12    21 1   
    32    12    35 1   
    33    12    36 1   
    34    13    14 2   
    35    14    22 1   
    36    14    37 1   
    37    15    18 ar  
    38    15    22 1   
    39    16    38 1   
    40    17    18 ar  
    41    17    39 1   
    42    18    40 1   
    43    19    41 1   
    44    20    27 1   
    45    20    42 1   
    46    21    26 1   
    47    21    44 1   
    48    22    45 1   
    49    23    46 1   
    50    26    48 2   
    51    26    49 2   
    52    43    47 1   
@<TRIPOS>SUBSTRUCTURE
     1 H2L         1 TEMP              0 ****  ****    0 ROOT
