@<TRIPOS>MOLECULE
H2L
   49    52     1     0     0
SMALL
abcg2


@<TRIPOS>ATOM
      1 C10         76.6020   122.1740    63.3050 c3         1 H2L       0.000800
      2 C15         75.8600   120.0890    64.6960 ca         1 H2L      -0.095800
      3 C17         74.7630   118.0040    64.2570 ca         1 H2L      -0.139000
      4 C22         73.8910   126.6240    62.3770 ca         1 H2L      -0.047000
      5 C24         72.7870   127.3800    64.3940 ca         1 H2L      -0.077000
      6 C26         72.8680   128.2160    69.7410 cc         1 H2L       0.544300
      7 C28         72.4090   128.5700    71.8500 cd         1 H2L       0.303900
      8 C02         73.1720   127.7780    67.3790 c          1 H2L       0.668100
      9 C04         73.9930   127.3280    65.0930 ca         1 H2L      -0.028000
     10 C05         75.1500   126.9260    64.4220 ca         1 H2L      -0.073000
     11 C06         75.0850   126.5850    63.0840 ca         1 H2L      -0.276500
     12 C09         76.3350   123.6580    63.5200 c3         1 H2L       0.196800
     13 C11         76.4570   121.3850    64.5670 cc         1 H2L      -0.146400
     14 C12         76.8750   121.7320    65.8230 cd         1 H2L      -0.159100
     15 C14         75.9530   119.7180    66.0560 ca         1 H2L      -0.046200
     16 C16         75.2530   119.2070    63.7920 ca         1 H2L      -0.062000
     17 C18         74.8650   117.6560    65.6150 ca         1 H2L      -0.090000
     18 C19         75.4580   118.5040    66.5310 ca         1 H2L      -0.127000
     19 C23         72.7520   127.0250    63.0520 ca         1 H2L      -0.101000
     20 C29         71.1440   128.3630    71.4180 cc         1 H2L      -0.310000
     21 N08         76.4600   124.3680    62.2490 n7         1 H2L      -0.862300
     22 N13         76.5740   120.7380    66.7110 na         1 H2L      -0.220700
     23 N25         73.6550   128.0810    68.6250 ns         1 H2L      -0.485400
     24 N27         73.3850   128.4870    70.8960 nd         1 H2L      -0.711000
     25 O01         71.9810   127.6180    67.1820 o          1 H2L      -0.603100
     26 S07         76.5530   126.0100    62.2670 sy         1 H2L       1.147600
     27 S30         71.1450   128.0410    69.7230 ss         1 H2L       0.059600
     28 H1          75.9010   121.7900    62.5580 hc         1 H2L       0.057700
     29 H2          77.6010   122.0510    62.8780 hc         1 H2L       0.057700
     30 H3          74.2920   117.3130    63.5690 ha         1 H2L       0.112000
     31 H4          73.8420   126.3610    61.3290 ha         1 H2L       0.135000
     32 H5          71.8790   127.7010    64.8760 ha         1 H2L       0.152000
     33 H6          72.6860   128.7900    72.8710 h4         1 H2L       0.041100
     34 H7          76.0920   126.8920    64.9560 ha         1 H2L       0.135000
     35 H8          77.0680   124.0700    64.2130 h1         1 H2L       0.051700
     36 H9          75.3430   123.7980    63.9630 h1         1 H2L       0.051700
     37 H10         77.3730   122.6260    66.1650 h4         1 H2L       0.211000
     38 H11         75.1680   119.4630    62.7420 ha         1 H2L       0.112000
     39 H12         74.4710   116.7050    65.9500 ha         1 H2L       0.111000
     40 H13         75.5340   118.2350    67.5770 ha         1 H2L       0.114000
     41 H14         71.8090   127.0740    62.5240 ha         1 H2L       0.124000
     42 H15         70.2280   128.3810    71.9870 h4         1 H2L       0.161000
     43 H16         75.1010   127.7720    66.7430 hn         1 H2L       0.158000
     44 H17         75.8160   124.0390    61.5360 hn         1 H2L       0.480000
     45 H18         76.7750   120.7670    67.6960 hn         1 H2L       0.351000
     46 H19         74.6450   128.2040    68.7850 hn         1 H2L       0.339500
     47 N03         74.1450   127.6820    66.4330 ns         1 H2L      -0.152000
     48 O20         76.5020   126.4370    60.8800 o          1 H2L      -0.532000
     49 O21         77.6920   126.3670    63.0960 o          1 H2L      -0.532000
@<TRIPOS>BOND
     1     1    12 1   
     2     1    13 1   
     3     1    28 1   
     4     1    29 1   
     5     2    13 1   
     6     2    15 ar  
     7     2    16 ar  
     8     3    16 ar  
     9     3    17 ar  
    10     3    30 1   
    11     4    11 ar  
    12     4    19 ar  
    13     4    31 1   
    14     5     9 ar  
    15     5    19 ar  
    16     5    32 1   
    17     6    23 1   
    18     6    24 2   
    19     6    27 1   
    20     7    20 2   
    21     7    24 1   
    22     7    33 1   
    23     8    23 1   
    24     8    25 2   
    25     8    47 1   
    26     9    10 ar  
    27     9    47 1   
    28    10    11 ar  
    29    10    34 1   
    30    11    26 1   
    31    12    21 1   
    32    12    35 1   
    33    12    36 1   
    34    13    14 2   
    35    14    22 1   
    36    14    37 1   
    37    15    18 ar  
    38    15    22 1   
    39    16    38 1   
    40    17    18 ar  
    41    17    39 1   
    42    18    40 1   
    43    19    41 1   
    44    20    27 1   
    45    20    42 1   
    46    21    26 1   
    47    21    44 1   
    48    22    45 1   
    49    23    46 1   
    50    26    48 2   
    51    26    49 2   
    52    43    47 1   
@<TRIPOS>SUBSTRUCTURE
     1 H2L         1 TEMP              0 ****  ****    0 ROOT
