@<TRIPOS>MOLECULE
H2M
   34    36     1     0     0
SMALL
bcc


@<TRIPOS>ATOM
      1 C4           2.3130     0.6820    -0.1210 ca         1 H2M       0.067600
      2 C5           3.4290     1.4930     0.0470 ca         1 H2M      -0.137000
      3 C6           3.3170     2.8690    -0.0700 ca         1 H2M      -0.114000
      4 C7           2.0790     3.4390    -0.3320 ca         1 H2M      -0.128000
      5 C8           0.9660     2.6280    -0.4970 ca         1 H2M      -0.107000
      6 C10         -0.1260     0.3980    -0.6510 cp         1 H2M      -0.039000
      7 C13         -2.3980    -1.1620    -1.1090 ca         1 H2M      -0.075000
      8 C15         -1.2890     0.6160     0.0810 ca         1 H2M      -0.051000
      9 C2           1.8080    -1.4660     0.9740 c          1 H2M       0.703500
     10 C1           2.2620    -2.8960     0.7610 c5         1 H2M      -0.131200
     11 N            2.4500    -0.7130     0.0200 n          1 H2M      -0.329200
     12 C3           3.3120    -1.5190    -0.7440 c2         1 H2M      -0.022400
     13 C            3.2420    -2.7910    -0.3620 c2         1 H2M      -0.251200
     14 C9           1.0650     1.2410    -0.4130 cp         1 H2M      -0.031000
     15 C14         -2.4180    -0.1580    -0.1470 ca         1 H2M      -0.196300
     16 C16         -3.6840     0.1130     0.6020 c3         1 H2M       0.721200
     17 F2          -3.4740     0.7590     1.7540 f          1 H2M      -0.235300
     18 F1          -4.5260     0.8720    -0.1180 f          1 H2M      -0.235300
     19 F           -4.3460    -1.0120     0.8990 f          1 H2M      -0.235300
     20 C12         -1.2410    -1.3810    -1.8390 ca         1 H2M      -0.141000
     21 C11         -0.1130    -0.6060    -1.6160 ca         1 H2M      -0.086000
     22 H1           4.3850     1.0420     0.2840 ha         1 H2M       0.140000
     23 H2           4.1910     3.4940     0.0580 ha         1 H2M       0.137000
     24 H3           1.9790     4.5130    -0.4150 ha         1 H2M       0.137000
     25 H4           0.0070     3.0760    -0.7260 ha         1 H2M       0.139000
     26 H5          -3.2700    -1.7740    -1.2960 ha         1 H2M       0.146000
     27 H6          -1.2920     1.3860     0.8410 ha         1 H2M       0.155000
     28 H7           2.6920    -3.2950     1.6840 hc         1 H2M       0.090200
     29 H8           1.4000    -3.5260     0.5230 hc         1 H2M       0.090200
     30 H9           3.9000    -1.0660    -1.5280 h4         1 H2M       0.165000
     31 H10          3.7910    -3.6120    -0.7930 ha         1 H2M       0.160000
     32 H11         -1.2210    -2.1560    -2.5930 ha         1 H2M       0.138000
     33 H12          0.7750    -0.7760    -2.2110 ha         1 H2M       0.138000
     34 O            1.0490    -1.0330     1.8130 o          1 H2M      -0.582500
@<TRIPOS>BOND
     1     1     2 ar  
     2     1    11 1   
     3     1    14 ar  
     4     2     3 ar  
     5     2    22 1   
     6     3     4 ar  
     7     3    23 1   
     8     4     5 ar  
     9     4    24 1   
    10     5    14 ar  
    11     5    25 1   
    12     6     8 ar  
    13     6    14 1   
    14     6    21 ar  
    15     7    15 ar  
    16     7    20 ar  
    17     7    26 1   
    18     8    15 ar  
    19     8    27 1   
    20     9    10 1   
    21     9    11 1   
    22     9    34 2   
    23    10    13 1   
    24    10    28 1   
    25    10    29 1   
    26    11    12 1   
    27    12    13 2   
    28    12    30 1   
    29    13    31 1   
    30    15    16 1   
    31    16    17 1   
    32    16    18 1   
    33    16    19 1   
    34    20    21 ar  
    35    20    32 1   
    36    21    33 1   
@<TRIPOS>SUBSTRUCTURE
     1 H2M         1 TEMP              0 ****  ****    0 ROOT
