@<TRIPOS>MOLECULE
H2M
   34    36     1     0     0
SMALL
No Charge or Current Charge


@<TRIPOS>ATOM
      1 C4           2.3870     0.7230    -0.1030 ca         1 H2M      -0.025000
      2 C5           3.5090     1.5520     0.0550 ca         1 H2M      -0.119000
      3 C6           3.3600     2.9430    -0.0720 ca         1 H2M      -0.096000
      4 C7           2.0970     3.4880    -0.3610 ca         1 H2M      -0.110000
      5 C8           0.9830     2.6460    -0.5390 ca         1 H2M      -0.089000
      6 C10         -0.1070     0.3840    -0.6710 cp         1 H2M      -0.039000
      7 C13         -2.4060    -1.2120    -1.1240 ca         1 H2M      -0.057000
      8 C15         -1.3030     0.6090     0.0520 ca         1 H2M      -0.033000
      9 C2           1.7930    -1.4400     1.0350 c          1 H2M       0.561000
     10 C1           2.1900    -2.9110     0.7500 c5         1 H2M      -0.131200
     11 N            2.4590    -0.7030     0.0290 n          1 H2M      -0.169600
     12 C3           3.2970    -1.5310    -0.7230 c2         1 H2M      -0.072400
     13 C            3.2180    -2.8110    -0.3680 c2         1 H2M      -0.301200
     14 C9           1.0980     1.2380    -0.4290 cp         1 H2M      -0.031000
     15 C14         -2.4520    -0.1850    -0.1560 ca         1 H2M      -0.196300
     16 C16         -3.7300     0.0870     0.6440 c3         1 H2M       0.357300
     17 F2          -3.4640     0.4690     1.9140 f          1 H2M      -0.114000
     18 F1          -4.4610     1.0730     0.0790 f          1 H2M      -0.114000
     19 F           -4.5310    -1.0000     0.7290 f          1 H2M      -0.114000
     20 C12         -1.2310    -1.4430    -1.8580 ca         1 H2M      -0.123000
     21 C11         -0.0930    -0.6520    -1.6360 ca         1 H2M      -0.068000
     22 H1           4.4810     1.1240     0.2890 ha         1 H2M       0.122000
     23 H2           4.2200     3.5970     0.0580 ha         1 H2M       0.119000
     24 H3           1.9820     4.5650    -0.4580 ha         1 H2M       0.119000
     25 H4           0.0190     3.0880    -0.7820 ha         1 H2M       0.121000
     26 H5          -3.2790    -1.8320    -1.3160 ha         1 H2M       0.128000
     27 H6          -1.3240     1.4090     0.7890 ha         1 H2M       0.137000
     28 H7           2.5520    -3.3810     1.6700 hc         1 H2M       0.090200
     29 H8           1.2940    -3.4560     0.4330 hc         1 H2M       0.090200
     30 H9           3.9220    -1.0790    -1.4970 h4         1 H2M       0.215000
     31 H10          3.7850    -3.6310    -0.8190 ha         1 H2M       0.210000
     32 H11         -1.2040    -2.2330    -2.6050 ha         1 H2M       0.120000
     33 H12          0.8060    -0.8340    -2.2200 ha         1 H2M       0.120000
     34 O            1.1480    -0.9810     1.9700 o          1 H2M      -0.507000
@<TRIPOS>BOND
     1     1     2 ar  
     2     1    11 1   
     3     1    14 ar  
     4     2     3 ar  
     5     2    22 1   
     6     3     4 ar  
     7     3    23 1   
     8     4     5 ar  
     9     4    24 1   
    10     5    14 ar  
    11     5    25 1   
    12     6     8 ar  
    13     6    14 1   
    14     6    21 ar  
    15     7    15 ar  
    16     7    20 ar  
    17     7    26 1   
    18     8    15 ar  
    19     8    27 1   
    20     9    10 1   
    21     9    11 1   
    22     9    34 2   
    23    10    13 1   
    24    10    28 1   
    25    10    29 1   
    26    11    12 1   
    27    12    13 2   
    28    12    30 1   
    29    13    31 1   
    30    15    16 1   
    31    16    17 1   
    32    16    18 1   
    33    16    19 1   
    34    20    21 ar  
    35    20    32 1   
    36    21    33 1   
@<TRIPOS>SUBSTRUCTURE
     1 H2M         1 TEMP              0 ****  ****    0 ROOT
