@<TRIPOS>MOLECULE
H2N
   46    47     1     0     0
SMALL
abcg2


@<TRIPOS>ATOM
      1 C10         -1.2740     1.2140    -1.0840 c3         1 H2N       0.115000
      2 C11         -2.0410     0.6860     0.1300 c3         1 H2N      -0.082400
      3 C12         -3.4940     0.2540    -0.1200 c3         1 H2N      -0.297000
      4 C13         -4.2320     0.1920     1.2370 c          1 H2N       0.603100
      5 C15         -4.2020     1.1690    -1.1230 c3         1 H2N      -0.085100
      6 C16          7.7920    -2.2570     0.4840 c3         1 H2N       0.145900
      7 O4          -3.6450     0.3270     2.2910 o          1 H2N      -0.550100
      8 N2          -5.5490    -0.0410     1.1540 ns         1 H2N      -0.389400
      9 O5          -6.3120    -0.0030     2.2770 oh         1 H2N      -0.403100
     10 S1          -3.5170    -1.4420    -0.8410 s6         1 H2N       1.055000
     11 O2          -4.8970    -1.7600    -1.2060 o          1 H2N      -0.515500
     12 O3          -2.5050    -1.5010    -1.8940 o          1 H2N      -0.515500
     13 N1           0.1200     1.3830    -0.7410 n          1 H2N      -0.320000
     14 C8           1.0770     0.3800    -0.7540 cc         1 H2N      -0.146400
     15 C9           0.6510     2.5020    -0.1930 c          1 H2N       0.668100
     16 O1           0.1410     3.5770     0.0180 o          1 H2N      -0.525000
     17 O6           1.9380     2.2110     0.1010 os         1 H2N      -0.291200
     18 C7           2.1990     0.9030    -0.2370 cd         1 H2N       0.059900
     19 C5           3.5330     0.4100     0.0360 ca         1 H2N      -0.103800
     20 C4           3.9470    -0.8550    -0.3550 ca         1 H2N       0.223000
     21 F1           3.0800    -1.6360    -1.0160 f          1 H2N      -0.180000
     22 C6           4.4820     1.1830     0.7190 ca         1 H2N      -0.022000
     23 C1           5.7470     0.7080     0.9890 ca         1 H2N      -0.165000
     24 C2           6.1230    -0.5750     0.5790 ca         1 H2N       0.181100
     25 C3           5.2040    -1.3670    -0.1060 ca         1 H2N      -0.250000
     26 O7           7.3680    -0.9650     0.8810 os         1 H2N      -0.333100
     27 H102        -1.3230     0.5430    -1.9380 h1         1 H2N       0.082200
     28 H101        -1.6590     2.1820    -1.4020 h1         1 H2N       0.082200
     29 H112        -1.4720    -0.1270     0.5860 hc         1 H2N       0.075200
     30 H111        -2.0600     1.4810     0.8770 hc         1 H2N       0.075200
     31 H141        -3.7620    -2.5560     1.2600 h1         1 H2N       0.110700
     32 H143        -2.9460    -3.5260     0.0150 h1         1 H2N       0.110700
     33 H142        -2.0450    -2.2510     0.8620 h1         1 H2N       0.110700
     34 H152        -3.6830     1.1870    -2.0790 hc         1 H2N       0.064033
     35 H151        -5.2310     0.8810    -1.3240 hc         1 H2N       0.064033
     36 H153        -4.2110     2.1850    -0.7280 hc         1 H2N       0.064033
     37 H163         7.1810    -3.0410     0.9390 h1         1 H2N       0.046033
     38 H162         7.7720    -2.3740    -0.6020 h1         1 H2N       0.046033
     39 H161         8.8160    -2.3640     0.8300 h1         1 H2N       0.046033
     40 H2          -6.0600    -0.1600     0.2910 hn         1 H2N       0.365500
     41 HO5         -6.3500    -0.9080     2.6160 ho         1 H2N       0.442000
     42 H8           0.8530    -0.6000    -1.1350 h4         1 H2N       0.250000
     43 H6           4.2250     2.1780     1.0540 ha         1 H2N       0.139000
     44 H1           6.4550     1.3270     1.5230 ha         1 H2N       0.137000
     45 H3           5.4340    -2.3650    -0.4520 ha         1 H2N       0.138000
     46 C14         -3.0170    -2.5380     0.4690 c3         1 H2N      -0.325100
@<TRIPOS>BOND
     1     1     2 1   
     2     1    13 1   
     3     1    27 1   
     4     1    28 1   
     5     2     3 1   
     6     2    29 1   
     7     2    30 1   
     8     3     4 1   
     9     3     5 1   
    10     3    10 1   
    11     4     7 2   
    12     4     8 1   
    13     5    34 1   
    14     5    35 1   
    15     5    36 1   
    16     6    26 1   
    17     6    37 1   
    18     6    38 1   
    19     6    39 1   
    20     8     9 1   
    21     8    40 1   
    22     9    41 1   
    23    10    11 2   
    24    10    12 2   
    25    10    46 1   
    26    13    14 1   
    27    13    15 1   
    28    14    18 2   
    29    14    42 1   
    30    15    16 2   
    31    15    17 1   
    32    17    18 1   
    33    18    19 1   
    34    19    20 ar  
    35    19    22 ar  
    36    20    21 1   
    37    20    25 ar  
    38    22    23 ar  
    39    22    43 1   
    40    23    24 ar  
    41    23    44 1   
    42    24    25 ar  
    43    24    26 1   
    44    25    45 1   
    45    31    46 1   
    46    32    46 1   
    47    33    46 1   
@<TRIPOS>SUBSTRUCTURE
     1 H2N         1 TEMP              0 ****  ****    0 ROOT
