@<TRIPOS>MOLECULE
H2N
   46    47     1     0     0
SMALL
No Charge or Current Charge


@<TRIPOS>ATOM
      1 C10         -1.3060     0.7480    -1.1490 c3         1 H2N       0.115000
      2 C11         -2.1340     0.3700     0.1070 c3         1 H2N      -0.082400
      3 C12         -3.6670     0.0590    -0.0970 c3         1 H2N      -0.297000
      4 C13         -4.2700    -0.3250     1.2760 c          1 H2N       0.603100
      5 C15         -4.3770     1.3100    -0.7340 c3         1 H2N      -0.085100
      6 C16          8.0240    -1.9990     1.0850 c3         1 H2N       0.145900
      7 O4          -3.7670    -1.1820     1.9880 o          1 H2N      -0.550100
      8 N2          -5.3870     0.3880     1.7030 ns         1 H2N      -0.389400
      9 O5          -5.8450     0.3040     3.0760 oh         1 H2N      -0.403100
     10 S1          -3.9740    -1.3850    -1.1820 s6         1 H2N       1.055000
     11 O2          -5.3470    -1.8460    -0.9460 o          1 H2N      -0.515500
     12 O3          -3.5820    -1.0160    -2.5480 o          1 H2N      -0.515500
     13 N1           0.1000     1.0430    -0.8170 n          1 H2N      -0.320000
     14 C8           1.0840     0.1250    -0.5780 cc         1 H2N      -0.146400
     15 C9           0.6150     2.3330    -0.7090 c          1 H2N       0.668100
     16 O1           0.0070     3.3840    -0.8580 o          1 H2N      -0.525000
     17 O6           1.9520     2.2020    -0.3910 os         1 H2N      -0.291200
     18 C7           2.2150     0.8500    -0.3170 cd         1 H2N       0.059900
     19 C5           3.5950     0.4260     0.0130 ca         1 H2N      -0.103800
     20 C4           3.9610    -0.9380     0.1140 ca         1 H2N       0.223000
     21 F1           3.0560    -1.9190    -0.0900 f          1 H2N      -0.180000
     22 C6           4.5920     1.4020     0.2390 ca         1 H2N      -0.022000
     23 C1           5.9080     1.0220     0.5540 ca         1 H2N      -0.165000
     24 C2           6.2580    -0.3310     0.6510 ca         1 H2N       0.181100
     25 C3           5.2760    -1.3140     0.4290 ca         1 H2N      -0.250000
     26 O7           7.5650    -0.6400     0.9630 os         1 H2N      -0.333100
     27 H102        -1.3160    -0.0750    -1.8730 h1         1 H2N       0.082200
     28 H101        -1.7450     1.6260    -1.6400 h1         1 H2N       0.082200
     29 H112        -1.6400    -0.4790     0.5950 hc         1 H2N       0.075200
     30 H111        -2.0450     1.2000     0.8210 hc         1 H2N       0.075200
     31 H141        -3.0890    -2.9580     0.3740 h1         1 H2N       0.110700
     32 H143        -3.0500    -3.5530    -1.3220 h1         1 H2N       0.110700
     33 H142        -1.8350    -2.3450    -0.7760 h1         1 H2N       0.110700
     34 H152        -3.9730     1.5430    -1.7260 hc         1 H2N       0.064033
     35 H151        -5.4540     1.1420    -0.8720 hc         1 H2N       0.064033
     36 H153        -4.2430     2.2040    -0.1110 hc         1 H2N       0.064033
     37 H163         7.4780    -2.5260     1.8780 h1         1 H2N       0.046033
     38 H162         7.8880    -2.5430     0.1420 h1         1 H2N       0.046033
     39 H161         9.0910    -2.0180     1.3380 h1         1 H2N       0.046033
     40 H2          -5.6850     1.2100     1.1820 hn         1 H2N       0.365500
     41 HO5         -6.8090     0.1130     2.9900 ho         1 H2N       0.442000
     42 H8           0.8610    -0.9370    -0.6220 h4         1 H2N       0.250000
     43 H6           4.3560     2.4610     0.1730 ha         1 H2N       0.139000
     44 H1           6.6640     1.7850     0.7250 ha         1 H2N       0.137000
     45 H3           5.5090    -2.3720     0.4940 ha         1 H2N       0.138000
     46 C14         -2.8640    -2.6980    -0.6640 c3         1 H2N      -0.325100
@<TRIPOS>BOND
     1     1     2 1   
     2     1    13 1   
     3     1    27 1   
     4     1    28 1   
     5     2     3 1   
     6     2    29 1   
     7     2    30 1   
     8     3     4 1   
     9     3     5 1   
    10     3    10 1   
    11     4     7 2   
    12     4     8 1   
    13     5    34 1   
    14     5    35 1   
    15     5    36 1   
    16     6    26 1   
    17     6    37 1   
    18     6    38 1   
    19     6    39 1   
    20     8     9 1   
    21     8    40 1   
    22     9    41 1   
    23    10    11 2   
    24    10    12 2   
    25    10    46 1   
    26    13    14 1   
    27    13    15 1   
    28    14    18 2   
    29    14    42 1   
    30    15    16 2   
    31    15    17 1   
    32    17    18 1   
    33    18    19 1   
    34    19    20 ar  
    35    19    22 ar  
    36    20    21 1   
    37    20    25 ar  
    38    22    23 ar  
    39    22    43 1   
    40    23    24 ar  
    41    23    44 1   
    42    24    25 ar  
    43    24    26 1   
    44    25    45 1   
    45    31    46 1   
    46    32    46 1   
    47    33    46 1   
@<TRIPOS>SUBSTRUCTURE
     1 H2N         1 TEMP              0 ****  ****    0 ROOT
