@<TRIPOS>MOLECULE
H2R
   56    59     1     0     0
SMALL
abcg2


@<TRIPOS>ATOM
      1 C10         77.3760   126.3480    62.4850 ca         1 H2R      -0.098000
      2 C17         78.5900   128.0390    69.0600 ca         1 H2R      -0.301300
      3 C20         78.5070   127.9610    70.5460 c3         1 H2R       0.371300
      4 C24         79.6710   126.3350    64.0380 ca         1 H2R      -0.119000
      5 C26         83.1010   123.2910    60.2720 c6         1 H2R       0.096500
      6 C28         87.1710   123.2470    61.3080 ca         1 H2R      -0.066000
      7 C02         85.1900   124.5840    60.7540 c          1 H2R       0.658100
      8 C04         83.0530   125.6960    60.4520 c6         1 H2R       0.096500
      9 C05         82.1490   125.6270    61.6780 c6         1 H2R      -0.105400
     10 C06         81.3120   124.3480    61.6850 c6         1 H2R      -0.056700
     11 C07         80.4720   124.2060    62.9580 c3         1 H2R      -0.030100
     12 C08         79.4620   125.3050    63.1280 ca         1 H2R      -0.066300
     13 C09         78.3030   125.3250    62.3530 ca         1 H2R      -0.107000
     14 C11         77.5820   127.3730    63.4000 ca         1 H2R      -0.107000
     15 C12         78.7340   127.3500    64.1650 ca         1 H2R       0.091100
     16 C14         78.8150   128.1960    66.3620 ca         1 H2R       0.615300
     17 C16         79.1310   129.1340    68.4080 ca         1 H2R       0.435900
     18 C18         78.1370   126.9770    68.2800 ca         1 H2R       0.005000
     19 C19         78.2420   127.0450    66.9090 ca         1 H2R      -0.238000
     20 C25         82.2130   123.1260    61.4990 c6         1 H2R      -0.105400
     21 C29         88.1840   124.0420    60.7630 ca         1 H2R       0.338900
     22 C31         89.8140   122.9270    61.9140 ca         1 H2R       0.312900
     23 C32         88.8910   122.0700    62.4900 ca         1 H2R      -0.140000
     24 C33         87.5510   122.2360    62.1860 ca         1 H2R      -0.134000
     25 F21         78.7860   129.1260    71.1360 f          1 H2R      -0.112667
     26 F22         79.3620   127.0550    71.0440 f          1 H2R      -0.112667
     27 F23         77.2850   127.5910    70.9550 f          1 H2R      -0.112667
     28 N03         83.8890   124.5090    60.3680 n          1 H2R      -0.411800
     29 N15         79.2400   129.2080    67.0890 nb         1 H2R      -0.698000
     30 N27         85.8260   123.3780    60.9660 ns         1 H2R      -0.162000
     31 N30         89.4640   123.8870    61.0680 nb         1 H2R      -0.650000
     32 O01         85.7820   125.6470    60.8830 o          1 H2R      -0.615100
     33 O13         78.9730   128.3890    65.0410 os         1 H2R      -0.349400
     34 H1          76.4800   126.3470    61.8780 ha         1 H2R       0.122000
     35 H2          80.5640   126.3460    64.6540 ha         1 H2R       0.131000
     36 H3          82.4780   123.3740    59.3760 h1         1 H2R       0.061450
     37 H4          83.7290   122.4190    60.1030 h1         1 H2R       0.061450
     38 H5          83.6770   126.5850    60.4730 h1         1 H2R       0.061450
     39 H6          82.4460   125.7470    59.5430 h1         1 H2R       0.061450
     40 H7          82.7670   125.6670    62.5820 hc         1 H2R       0.052450
     41 H8          81.5040   126.5090    61.6940 hc         1 H2R       0.052450
     42 H9          80.6290   124.3910    60.8270 hc         1 H2R       0.050700
     43 H10         79.9540   123.2430    62.9290 hc         1 H2R       0.051200
     44 H11         81.1370   124.1750    63.8260 hc         1 H2R       0.051200
     45 H12         78.1250   124.5300    61.6380 ha         1 H2R       0.118000
     46 H13         76.8620   128.1730    63.5150 ha         1 H2R       0.135000
     47 H14         79.4970   129.9930    68.9570 h4         1 H2R       0.042100
     48 H15         77.6970   126.0960    68.7300 ha         1 H2R       0.133000
     49 H16         77.8860   126.2300    66.2960 ha         1 H2R       0.143000
     50 H17         81.6080   122.2230    61.3950 hc         1 H2R       0.052450
     51 H18         82.8430   122.9920    62.3850 hc         1 H2R       0.052450
     52 H19         87.9520   124.8240    60.0530 h4         1 H2R       0.043100
     53 H20         90.8710   122.8300    62.1350 h4         1 H2R       0.020100
     54 H21         89.2100   121.2900    63.1670 ha         1 H2R       0.122000
     55 H22         86.8040   121.5880    62.6270 ha         1 H2R       0.111000
     56 H23         85.2630   122.5680    61.1710 hn         1 H2R       0.146000
@<TRIPOS>BOND
     1     1    13 ar  
     2     1    14 ar  
     3     1    34 1   
     4     2     3 1   
     5     2    17 ar  
     6     2    18 ar  
     7     3    25 1   
     8     3    26 1   
     9     3    27 1   
    10     4    12 ar  
    11     4    15 ar  
    12     4    35 1   
    13     5    20 1   
    14     5    28 1   
    15     5    36 1   
    16     5    37 1   
    17     6    21 ar  
    18     6    24 ar  
    19     6    30 1   
    20     7    28 1   
    21     7    30 1   
    22     7    32 2   
    23     8     9 1   
    24     8    28 1   
    25     8    38 1   
    26     8    39 1   
    27     9    10 1   
    28     9    40 1   
    29     9    41 1   
    30    10    11 1   
    31    10    20 1   
    32    10    42 1   
    33    11    12 1   
    34    11    43 1   
    35    11    44 1   
    36    12    13 ar  
    37    13    45 1   
    38    14    15 ar  
    39    14    46 1   
    40    15    33 1   
    41    16    19 ar  
    42    16    29 ar  
    43    16    33 1   
    44    17    29 ar  
    45    17    47 1   
    46    18    19 ar  
    47    18    48 1   
    48    19    49 1   
    49    20    50 1   
    50    20    51 1   
    51    21    31 ar  
    52    21    52 1   
    53    22    23 ar  
    54    22    31 ar  
    55    22    53 1   
    56    23    24 ar  
    57    23    54 1   
    58    24    55 1   
    59    30    56 1   
@<TRIPOS>SUBSTRUCTURE
     1 H2R         1 TEMP              0 ****  ****    0 ROOT
