@<TRIPOS>MOLECULE
H2R
   56    59     1     0     0
SMALL
No Charge or Current Charge


@<TRIPOS>ATOM
      1 C10         77.5490   126.5220    61.6960 ca         1 H2R      -0.098000
      2 C17         78.0310   128.1750    68.7900 ca         1 H2R      -0.301300
      3 C20         78.0830   128.1080    70.3110 c3         1 H2R       0.371300
      4 C24         79.0560   126.5160    64.0690 ca         1 H2R      -0.119000
      5 C26         83.6440   123.1750    61.9480 c6         1 H2R       0.096500
      6 C28         87.6560   123.0180    60.7200 ca         1 H2R      -0.066000
      7 C02         85.7180   124.5520    61.4290 c          1 H2R       0.658100
      8 C04         83.5620   125.7190    61.9650 c6         1 H2R       0.096500
      9 C05         82.2990   125.6490    62.8520 c6         1 H2R      -0.105400
     10 C06         81.4700   124.3790    62.5710 c6         1 H2R      -0.056700
     11 C07         80.1710   124.3180    63.4290 c3         1 H2R      -0.030100
     12 C08         79.1970   125.4580    63.1500 ca         1 H2R      -0.066300
     13 C09         78.4380   125.4660    61.9640 ca         1 H2R      -0.107000
     14 C11         77.4120   127.5740    62.6160 ca         1 H2R      -0.107000
     15 C12         78.1550   127.5680    63.8070 ca         1 H2R       0.091100
     16 C14         78.0180   128.4510    66.0510 ca         1 H2R       0.615300
     17 C16         78.6330   129.2570    68.1260 ca         1 H2R       0.435900
     18 C18         77.3740   127.1960    68.0220 ca         1 H2R       0.005000
     19 C19         77.3700   127.3460    66.6300 ca         1 H2R      -0.238000
     20 C25         82.3740   123.1590    62.8300 c6         1 H2R      -0.105400
     21 C29         88.6260   123.9860    60.3490 ca         1 H2R       0.338900
     22 C31         90.1750   122.3500    59.7880 ca         1 H2R       0.312900
     23 C32         89.2790   121.3230    60.1320 ca         1 H2R      -0.140000
     24 C33         87.9990   121.6580    60.6050 ca         1 H2R      -0.134000
     25 F21         77.1970   128.9620    70.8690 f          1 H2R      -0.112667
     26 F22         79.3050   128.4380    70.7870 f          1 H2R      -0.112667
     27 F23         77.8010   126.8750    70.7900 f          1 H2R      -0.112667
     28 N03         84.3910   124.4750    61.9210 n          1 H2R      -0.411800
     29 N15         78.6280   129.3990    66.7840 nb         1 H2R      -0.698000
     30 N27         86.3540   123.3370    61.2020 ns         1 H2R      -0.162000
     31 N30         89.8620   123.6610    59.8920 nb         1 H2R      -0.650000
     32 O01         86.2550   125.6330    61.2250 o          1 H2R      -0.615100
     33 O13         78.0100   128.6160    64.6860 os         1 H2R      -0.349400
     34 H1          76.9700   126.5240    60.7750 ha         1 H2R       0.122000
     35 H2          79.6520   126.5230    64.9780 ha         1 H2R       0.131000
     36 H3          83.3570   122.9250    60.9160 h1         1 H2R       0.061450
     37 H4          84.3000   122.3680    62.3050 h1         1 H2R       0.061450
     38 H5          84.1780   126.5610    62.3130 h1         1 H2R       0.061450
     39 H6          83.2540   125.9570    60.9360 h1         1 H2R       0.061450
     40 H7          82.5980   125.6710    63.9090 hc         1 H2R       0.052450
     41 H8          81.6950   126.5510    62.6820 hc         1 H2R       0.052450
     42 H9          81.1580   124.3760    61.5160 hc         1 H2R       0.050700
     43 H10         79.6580   123.3660    63.2430 hc         1 H2R       0.051200
     44 H11         80.4330   124.3020    64.4940 hc         1 H2R       0.051200
     45 H12         78.5400   124.6540    61.2460 ha         1 H2R       0.118000
     46 H13         76.7270   128.3930    62.4090 ha         1 H2R       0.135000
     47 H14         79.1380   130.0440    68.6870 h4         1 H2R       0.042100
     48 H15         76.8740   126.3450    68.4840 ha         1 H2R       0.133000
     49 H16         76.8660   126.6170    66.0040 ha         1 H2R       0.143000
     50 H17         81.8190   122.2280    62.6480 hc         1 H2R       0.052450
     51 H18         82.6720   123.1370    63.8880 hc         1 H2R       0.052450
     52 H19         88.4290   125.0530    60.4110 h4         1 H2R       0.043100
     53 H20         91.1720   122.1150    59.4190 h4         1 H2R       0.020100
     54 H21         89.5790   120.2840    60.0300 ha         1 H2R       0.122000
     55 H22         87.2920   120.8770    60.8760 ha         1 H2R       0.111000
     56 H23         85.7890   122.5270    61.4170 hn         1 H2R       0.146000
@<TRIPOS>BOND
     1     1    13 ar  
     2     1    14 ar  
     3     1    34 1   
     4     2     3 1   
     5     2    17 ar  
     6     2    18 ar  
     7     3    25 1   
     8     3    26 1   
     9     3    27 1   
    10     4    12 ar  
    11     4    15 ar  
    12     4    35 1   
    13     5    20 1   
    14     5    28 1   
    15     5    36 1   
    16     5    37 1   
    17     6    21 ar  
    18     6    24 ar  
    19     6    30 1   
    20     7    28 1   
    21     7    30 1   
    22     7    32 2   
    23     8     9 1   
    24     8    28 1   
    25     8    38 1   
    26     8    39 1   
    27     9    10 1   
    28     9    40 1   
    29     9    41 1   
    30    10    11 1   
    31    10    20 1   
    32    10    42 1   
    33    11    12 1   
    34    11    43 1   
    35    11    44 1   
    36    12    13 ar  
    37    13    45 1   
    38    14    15 ar  
    39    14    46 1   
    40    15    33 1   
    41    16    19 ar  
    42    16    29 ar  
    43    16    33 1   
    44    17    29 ar  
    45    17    47 1   
    46    18    19 ar  
    47    18    48 1   
    48    19    49 1   
    49    20    50 1   
    50    20    51 1   
    51    21    31 ar  
    52    21    52 1   
    53    22    23 ar  
    54    22    31 ar  
    55    22    53 1   
    56    23    24 ar  
    57    23    54 1   
    58    24    55 1   
    59    30    56 1   
@<TRIPOS>SUBSTRUCTURE
     1 H2R         1 TEMP              0 ****  ****    0 ROOT
