@<TRIPOS>MOLECULE
H2S
    3     2     1     0     0
SMALL
bcc


@<TRIPOS>ATOM
      1 S           27.0070    73.3320    42.9610 sh         1 H2S      -0.448600
      2 HS1         28.3360    73.3100    43.0960 hs         1 H2S       0.223800
      3 HS2         26.7910    73.3270    44.2800 hs         1 H2S       0.223800
@<TRIPOS>BOND
     1     1     2 1   
     2     1     3 1   
@<TRIPOS>SUBSTRUCTURE
     1 H2S         1 TEMP              0 ****  ****    0 ROOT
