@<TRIPOS>MOLECULE
H2S
    3     2     1     0     0
SMALL
No Charge or Current Charge


@<TRIPOS>ATOM
      1 S           26.9950    73.3320    42.9460 sh         1 H2S      -0.448600
      2 HS1         28.3420    73.3100    43.1040 hs         1 H2S       0.223800
      3 HS2         26.7970    73.3270    44.2870 hs         1 H2S       0.223800
@<TRIPOS>BOND
     1     1     2 1   
     2     1     3 1   
@<TRIPOS>SUBSTRUCTURE
     1 H2S         1 TEMP              0 ****  ****    0 ROOT
