@<TRIPOS>MOLECULE
H2T
   68    74     1     0     0
SMALL
abcg2


@<TRIPOS>ATOM
      1 C1         -18.8060    18.4010   -15.0970 cc         1 H2T       0.345500
      2 C11        -16.0800    22.8370   -14.0500 ca         1 H2T      -0.133000
      3 C12        -17.4550    22.6300   -13.9050 ca         1 H2T      -0.026200
      4 C13        -18.0230    21.3400   -13.9340 ca         1 H2T      -0.225900
      5 C15        -19.3620    19.0900   -16.2680 ca         1 H2T      -0.166500
      6 C18        -19.4170    21.5580   -13.7480 cc         1 H2T       0.374800
      7 C19        -20.2010    15.2140   -12.6110 cy         1 H2T      -0.078400
      8 C20        -19.9000    13.7660   -13.0470 cy         1 H2T      -0.117000
      9 C21        -18.6900    14.2870   -13.8460 cy         1 H2T      -0.078400
     10 C22        -19.6740    12.6980   -11.9420 cy         1 H2T       0.121000
     11 C24        -20.9770    12.8450   -13.6560 cy         1 H2T       0.121000
     12 C25        -20.7160    18.8610   -16.6320 ca         1 H2T      -0.048000
     13 C26        -21.3120    19.4930   -17.7020 ca         1 H2T      -0.140000
     14 C27        -20.5220    20.3910   -18.4330 ca         1 H2T      -0.025200
     15 C28        -19.1690    20.6320   -18.0980 ca         1 H2T      -0.235900
     16 C29        -18.5890    19.9720   -17.0080 ca         1 H2T      -0.005000
     17 C30        -13.7850    21.9170   -14.4040 c3         1 H2T      -0.048800
     18 N2         -19.2070    17.1730   -14.7660 nd         1 H2T      -0.527800
     19 N3         -18.5170    16.8490   -13.6500 na         1 H2T       0.129800
     20 C4         -17.6800    17.8420   -13.2530 cd         1 H2T      -0.086300
     21 C5         -17.8330    18.8710   -14.1730 cc         1 H2T      -0.166000
     22 C6         -16.8330    17.7730   -12.0330 c3         1 H2T      -0.035800
     23 C7         -17.2130    20.2010   -14.1250 ca         1 H2T       0.098000
     24 C8         -18.7510    15.5790   -13.0000 cy         1 H2T       0.076300
     25 C9         -15.8550    20.4400   -14.2760 ca         1 H2T       0.082000
     26 C10        -15.2660    21.7340   -14.2360 ca         1 H2T      -0.027300
     27 CL1        -14.7910    19.0750   -14.5820 cl         1 H2T      -0.217000
     28 N16        -18.4900    23.4910   -13.7150 na         1 H2T      -0.074400
     29 N17        -19.6790    22.8460   -13.6200 nd         1 H2T      -0.514100
     30 N23        -20.7420    11.9050   -12.5520 nj         1 H2T      -0.431800
     31 N31        -20.8020    21.1720   -19.5120 na         1 H2T       0.058600
     32 N32        -19.7150    21.8900   -19.8960 nc         1 H2T      -0.519100
     33 C33        -18.7350    21.5820   -19.0650 cd         1 H2T       0.363800
     34 C34        -22.0490    21.2520   -20.2420 c3         1 H2T       0.084900
     35 C35        -21.2710    10.7340   -12.1890 c          1 H2T       0.611100
     36 O36        -20.8820    10.1320   -11.1770 o          1 H2T      -0.615100
     37 C37        -22.3320    10.1640   -13.1060 c3         1 H2T      -0.151400
     38 C38        -21.7060     9.2260   -14.1460 c3         1 H2T      -0.084100
     39 H1         -15.6540    23.8310   -14.0200 ha         1 H2T       0.123000
     40 H2         -20.2130    20.8310   -13.7130 h4         1 H2T       0.057800
     41 H3         -20.5030    15.3810   -11.5770 hc         1 H2T       0.074450
     42 H4         -20.9100    15.6880   -13.2890 hc         1 H2T       0.074450
     43 H5         -18.9630    14.4910   -14.8810 hc         1 H2T       0.074450
     44 H6         -17.7690    13.7060   -13.8110 hc         1 H2T       0.074450
     45 H7         -18.7010    12.2010   -11.9680 h1         1 H2T       0.059450
     46 H8         -19.8940    13.0190   -10.9220 h1         1 H2T       0.059450
     47 H9         -21.9860    13.2610   -13.6780 h1         1 H2T       0.059450
     48 H10        -20.7260    12.4380   -14.6380 h1         1 H2T       0.059450
     49 H11        -21.2960    18.1720   -16.0330 ha         1 H2T       0.122000
     50 H12        -22.3460    19.3080   -17.9580 ha         1 H2T       0.120000
     51 H13        -17.5530    20.1460   -16.7520 ha         1 H2T       0.129000
     52 H14        -13.4470    21.5350   -15.3700 hc         1 H2T       0.051033
     53 H15        -13.5240    22.9720   -14.3380 hc         1 H2T       0.051033
     54 H16        -13.2310    21.3730   -13.6350 hc         1 H2T       0.051033
     55 H17        -17.4280    17.5420   -11.1460 hc         1 H2T       0.056700
     56 H18        -16.0580    17.0080   -12.1270 hc         1 H2T       0.056700
     57 H19        -16.3430    18.7320   -11.8750 hc         1 H2T       0.056700
     58 H20        -18.0820    15.5240   -12.1460 h1         1 H2T       0.073700
     59 H21        -18.4580    24.4950   -13.6430 hn         1 H2T       0.377000
     60 H22        -17.7650    22.0410   -19.1740 h4         1 H2T       0.049800
     61 H23        -21.9700    22.0670   -20.9560 h1         1 H2T       0.053367
     62 H24        -22.2460    20.3200   -20.7750 h1         1 H2T       0.053367
     63 H25        -22.8720    21.4510   -19.5550 h1         1 H2T       0.053367
     64 H26        -22.8770    10.9650   -13.6080 hc         1 H2T       0.060700
     65 H27        -23.0380     9.6140   -12.4830 hc         1 H2T       0.060700
     66 H28        -22.4800     8.7890   -14.7800 hc         1 H2T       0.041033
     67 H29        -21.0050     9.7630   -14.7880 hc         1 H2T       0.041033
     68 H30        -21.1660     8.4130   -13.6580 hc         1 H2T       0.041033
@<TRIPOS>BOND
     1     1     5 1   
     2     1    18 2   
     3     1    21 1   
     4     2     3 ar  
     5     2    26 ar  
     6     2    39 1   
     7     3     4 ar  
     8     3    28 1   
     9     4     6 1   
    10     4    23 ar  
    11     5    12 ar  
    12     5    16 ar  
    13     6    29 2   
    14     6    40 1   
    15     7     8 1   
    16     7    24 1   
    17     7    41 1   
    18     7    42 1   
    19     8     9 1   
    20     8    10 1   
    21     8    11 1   
    22     9    24 1   
    23     9    43 1   
    24     9    44 1   
    25    10    30 1   
    26    10    45 1   
    27    10    46 1   
    28    11    30 1   
    29    11    47 1   
    30    11    48 1   
    31    12    13 ar  
    32    12    49 1   
    33    13    14 ar  
    34    13    50 1   
    35    14    15 ar  
    36    14    31 1   
    37    15    16 ar  
    38    15    33 1   
    39    16    51 1   
    40    17    26 1   
    41    17    52 1   
    42    17    53 1   
    43    17    54 1   
    44    18    19 1   
    45    19    20 1   
    46    19    24 1   
    47    20    21 2   
    48    20    22 1   
    49    21    23 1   
    50    22    55 1   
    51    22    56 1   
    52    22    57 1   
    53    23    25 ar  
    54    24    58 1   
    55    25    26 ar  
    56    25    27 1   
    57    28    29 1   
    58    28    59 1   
    59    30    35 1   
    60    31    32 1   
    61    31    34 1   
    62    32    33 2   
    63    33    60 1   
    64    34    61 1   
    65    34    62 1   
    66    34    63 1   
    67    35    36 2   
    68    35    37 1   
    69    37    38 1   
    70    37    64 1   
    71    37    65 1   
    72    38    66 1   
    73    38    67 1   
    74    38    68 1   
@<TRIPOS>SUBSTRUCTURE
     1 H2T         1 TEMP              0 ****  ****    0 ROOT
