@<TRIPOS>MOLECULE
H2T
   68    74     1     0     0
SMALL
No Charge or Current Charge


@<TRIPOS>ATOM
      1 C1         -18.7980    18.3330   -15.4260 cc         1 H2T       0.345500
      2 C11        -16.4140    22.7010   -13.4840 ca         1 H2T      -0.133000
      3 C12        -17.7600    22.4010   -13.7010 ca         1 H2T      -0.026200
      4 C13        -18.1820    21.1530   -14.0250 ca         1 H2T      -0.225900
      5 C15        -19.2990    19.1180   -16.5720 ca         1 H2T      -0.166500
      6 C18        -19.6200    21.2440   -14.1130 cc         1 H2T       0.374800
      7 C19        -19.7330    15.1220   -12.4000 cy         1 H2T      -0.078400
      8 C20        -19.8860    13.7700   -13.0960 cy         1 H2T      -0.117000
      9 C21        -19.3040    14.1570   -14.4530 cy         1 H2T      -0.078400
     10 C22        -19.1900    12.6050   -12.3900 cy         1 H2T       0.121000
     11 C24        -21.2900    13.1750   -13.0940 cy         1 H2T       0.121000
     12 C25        -20.4770    18.7000   -17.2610 ca         1 H2T      -0.048000
     13 C26        -20.9690    19.4150   -18.3740 ca         1 H2T      -0.140000
     14 C27        -20.2510    20.5400   -18.7940 ca         1 H2T      -0.025200
     15 C28        -19.1140    20.9270   -18.1700 ca         1 H2T      -0.235900
     16 C29        -18.5890    20.2450   -17.0670 ca         1 H2T      -0.005000
     17 C30        -13.9920    21.9570   -13.4210 c3         1 H2T      -0.048800
     18 N2         -19.1900    17.0860   -15.2390 nd         1 H2T      -0.527800
     19 N3         -18.4730    16.6790   -14.1270 na         1 H2T       0.129800
     20 C4         -17.6580    17.6950   -13.6160 cd         1 H2T      -0.086300
     21 C5         -17.8070    18.7340   -14.4960 cc         1 H2T      -0.166000
     22 C6         -16.9250    17.6040   -12.2940 c3         1 H2T      -0.035800
     23 C7         -17.2990    20.0690   -14.1590 ca         1 H2T       0.098000
     24 C8         -18.6590    15.3410   -13.5730 cy         1 H2T       0.076300
     25 C9         -15.9150    20.3420   -13.9620 ca         1 H2T       0.082000
     26 C10        -15.4730    21.6550   -13.6240 ca         1 H2T      -0.027300
     27 Cl1        -14.7080    19.0750   -14.2460 cl         1 H2T      -0.217000
     28 N16        -18.8770    23.2020   -13.6150 na         1 H2T      -0.074400
     29 N17        -20.0580    22.4900   -13.8650 nd         1 H2T      -0.514100
     30 N23        -20.6360    12.1130   -12.1910 nj         1 H2T      -0.431800
     31 N31        -20.4720    21.4160   -19.8400 na         1 H2T       0.058600
     32 N32        -19.4690    22.3890   -19.9120 nc         1 H2T      -0.519100
     33 C33        -18.6450    22.0880   -18.8930 cd         1 H2T       0.363800
     34 C34        -21.6110    21.3400   -20.7680 c3         1 H2T       0.084900
     35 C35        -20.6690    10.9850   -13.0710 c          1 H2T       0.611100
     36 O36        -20.2430    10.8250   -14.2140 o          1 H2T      -0.615100
     37 C37        -21.3890     9.7930   -12.4280 c3         1 H2T      -0.151400
     38 C38        -22.8810     9.7510   -12.8280 c3         1 H2T      -0.084100
     39 H1         -16.1050    23.7100   -13.2220 ha         1 H2T       0.123000
     40 H2         -20.3670    20.4910   -14.3260 h4         1 H2T       0.057800
     41 H3         -19.3440    15.1240   -11.3760 hc         1 H2T       0.074450
     42 H4         -20.6060    15.7800   -12.4640 hc         1 H2T       0.074450
     43 H5         -20.0450    14.4810   -15.1930 hc         1 H2T       0.074450
     44 H6         -18.6010    13.4590   -14.9180 hc         1 H2T       0.074450
     45 H7         -18.5300    11.9880   -13.0120 h1         1 H2T       0.059450
     46 H8         -18.6990    12.8600   -11.4440 h1         1 H2T       0.059450
     47 H9         -22.0450    13.7710   -12.5690 h1         1 H2T       0.059450
     48 H10        -21.6650    12.8400   -14.0700 h1         1 H2T       0.059450
     49 H11        -21.0280    17.8240   -16.9240 ha         1 H2T       0.122000
     50 H12        -21.8730    19.0970   -18.8860 ha         1 H2T       0.120000
     51 H13        -17.6480    20.5740   -16.6340 ha         1 H2T       0.129000
     52 H14        -13.4260    21.7900   -14.3450 hc         1 H2T       0.051033
     53 H15        -13.8260    22.9980   -13.1180 hc         1 H2T       0.051033
     54 H16        -13.5630    21.3180   -12.6400 hc         1 H2T       0.051033
     55 H17        -17.5370    17.1040   -11.5350 hc         1 H2T       0.056700
     56 H18        -15.9950    17.0330   -12.3990 hc         1 H2T       0.056700
     57 H19        -16.6720    18.5930   -11.8960 hc         1 H2T       0.056700
     58 H20        -17.6560    15.0520   -13.2380 h1         1 H2T       0.073700
     59 H21        -18.8890    24.1970   -13.3920 hn         1 H2T       0.377000
     60 H22        -17.7680    22.7010   -18.7240 h4         1 H2T       0.049800
     61 H23        -21.5580    22.1610   -21.4930 h1         1 H2T       0.053367
     62 H24        -21.5840    20.3830   -21.3020 h1         1 H2T       0.053367
     63 H25        -22.5480    21.4150   -20.2040 h1         1 H2T       0.053367
     64 H26        -21.3520     9.8870   -11.3360 hc         1 H2T       0.060700
     65 H27        -20.9130     8.8580   -12.7460 hc         1 H2T       0.060700
     66 H28        -23.3810     8.8980   -12.3550 hc         1 H2T       0.041033
     67 H29        -23.3930    10.6680   -12.5120 hc         1 H2T       0.041033
     68 H30        -22.9880     9.6520   -13.9150 hc         1 H2T       0.041033
@<TRIPOS>BOND
     1     1     5 1   
     2     1    18 2   
     3     1    21 1   
     4     2     3 ar  
     5     2    26 ar  
     6     2    39 1   
     7     3     4 ar  
     8     3    28 1   
     9     4     6 1   
    10     4    23 ar  
    11     5    12 ar  
    12     5    16 ar  
    13     6    29 2   
    14     6    40 1   
    15     7     8 1   
    16     7    24 1   
    17     7    41 1   
    18     7    42 1   
    19     8     9 1   
    20     8    10 1   
    21     8    11 1   
    22     9    24 1   
    23     9    43 1   
    24     9    44 1   
    25    10    30 1   
    26    10    45 1   
    27    10    46 1   
    28    11    30 1   
    29    11    47 1   
    30    11    48 1   
    31    12    13 ar  
    32    12    49 1   
    33    13    14 ar  
    34    13    50 1   
    35    14    15 ar  
    36    14    31 1   
    37    15    16 ar  
    38    15    33 1   
    39    16    51 1   
    40    17    26 1   
    41    17    52 1   
    42    17    53 1   
    43    17    54 1   
    44    18    19 1   
    45    19    20 1   
    46    19    24 1   
    47    20    21 2   
    48    20    22 1   
    49    21    23 1   
    50    22    55 1   
    51    22    56 1   
    52    22    57 1   
    53    23    25 ar  
    54    24    58 1   
    55    25    26 ar  
    56    25    27 1   
    57    28    29 1   
    58    28    59 1   
    59    30    35 1   
    60    31    32 1   
    61    31    34 1   
    62    32    33 2   
    63    33    60 1   
    64    34    61 1   
    65    34    62 1   
    66    34    63 1   
    67    35    36 2   
    68    35    37 1   
    69    37    38 1   
    70    37    64 1   
    71    37    65 1   
    72    38    66 1   
    73    38    67 1   
    74    38    68 1   
@<TRIPOS>SUBSTRUCTURE
     1 H2T         1 TEMP              0 ****  ****    0 ROOT
