@<TRIPOS>MOLECULE
H2U
   34    35     1     0     0
SMALL
abcg2


@<TRIPOS>ATOM
      1 P           -0.9440     0.2610    -4.1540 p5         1 H2U       1.271900
      2 OP1         -1.7530    -1.0220    -3.9980 o          1 H2U      -0.925167
      3 OP2         -1.7580     1.5110    -4.4570 o          1 H2U      -0.925167
      4 OP3          0.3250     0.0990    -4.9850 o          1 H2U      -0.925167
      5 O5          -0.3880     0.6230    -2.5780 os         1 H2U      -0.569400
      6 C5           0.3730    -0.3500    -1.9340 c3         1 H2U       0.257600
      7 C4           1.2370     0.2790    -0.8670 c5         1 H2U       0.155300
      8 O4           0.4250     0.7980     0.1730 os         1 H2U      -0.408000
      9 C3           2.1720    -0.7110    -0.1800 c5         1 H2U       0.089300
     10 O3           3.3700    -0.8330    -0.9090 oh         1 H2U      -0.703000
     11 C1           1.1110     0.7800     1.3990 c5         1 H2U       0.339700
     12 C2           2.3810    -0.0740     1.2050 c5         1 H2U       0.086300
     13 O2           3.4870     0.7950     1.1810 oh         1 H2U      -0.740000
     14 N1           0.2030     0.3870     2.4530 n          1 H2U      -0.416800
     15 C9          -0.3230    -0.8570     2.4710 c          1 H2U       0.626000
     16 O6          -0.0440    -1.7410     1.6830 o          1 H2U      -0.543000
     17 N3          -1.2380    -1.1100     3.4920 ns         1 H2U      -0.487500
     18 C8          -1.9040    -0.1910     4.2610 c          1 H2U       0.586000
     19 O1          -2.7610    -0.5270     5.0470 o          1 H2U      -0.561000
     20 C7          -1.4880     1.2260     3.9990 c6         1 H2U      -0.187400
     21 C6          -0.0380     1.2890     3.5700 c6         1 H2U       0.123000
     22 H5           1.0480    -0.8720    -2.6280 h1         1 H2U       0.010700
     23 H5'         -0.2530    -1.1220    -1.4610 h1         1 H2U       0.010700
     24 H4           1.8400     1.0830    -1.3160 h1         1 H2U       0.067700
     25 H3           1.6780    -1.6780    -0.0690 h1         1 H2U       0.078700
     26 HO3          3.7480    -1.7010    -0.7400 ho         1 H2U       0.487000
     27 H1           1.4360     1.7900     1.6690 h2         1 H2U       0.053700
     28 H2           2.4950    -0.8230     1.9960 h1         1 H2U       0.038700
     29 HO2          4.0900     0.4550     0.5060 ho         1 H2U       0.521000
     30 HN3         -1.5490    -2.0710     3.5520 hn         1 H2U       0.328500
     31 H51         -1.6530     1.8250     4.8930 hc         1 H2U       0.084200
     32 H52         -2.1340     1.6250     3.2110 hc         1 H2U       0.084200
     33 H61          0.6180     1.0410     4.4100 h1         1 H2U       0.045200
     34 H62          0.2060     2.3010     3.2560 h1         1 H2U       0.045200
@<TRIPOS>BOND
     1     1     2 1   
     2     1     3 1   
     3     1     4 1   
     4     1     5 1   
     5     5     6 1   
     6     6     7 1   
     7     6    22 1   
     8     6    23 1   
     9     7     8 1   
    10     7     9 1   
    11     7    24 1   
    12     8    11 1   
    13     9    10 1   
    14     9    12 1   
    15     9    25 1   
    16    10    26 1   
    17    11    12 1   
    18    11    14 1   
    19    11    27 1   
    20    12    13 1   
    21    12    28 1   
    22    13    29 1   
    23    14    15 1   
    24    14    21 1   
    25    15    16 2   
    26    15    17 1   
    27    17    18 1   
    28    17    30 1   
    29    18    19 2   
    30    18    20 1   
    31    20    21 1   
    32    20    31 1   
    33    20    32 1   
    34    21    33 1   
    35    21    34 1   
@<TRIPOS>SUBSTRUCTURE
     1 H2U         1 TEMP              0 ****  ****    0 ROOT
