@<TRIPOS>MOLECULE
H2U
   34    35     1     0     0
SMALL
No Charge or Current Charge


@<TRIPOS>ATOM
      1 P           -0.2500     0.9050    -3.9630 p5         1 H2U       1.271900
      2 OP1          0.7000     0.2750    -4.9200 o          1 H2U      -0.925167
      3 OP2         -1.4320     1.4070    -4.7150 o          1 H2U      -0.925167
      4 OP3          0.4030     2.0470    -3.2700 o          1 H2U      -0.925167
      5 O5          -0.7570    -0.1990    -2.9040 os         1 H2U      -0.569400
      6 C5           0.1610    -1.0080    -2.1410 c3         1 H2U       0.257600
      7 C4           0.8870    -0.1980    -1.0240 c5         1 H2U       0.155300
      8 O4          -0.0510     0.2840    -0.0380 os         1 H2U      -0.408000
      9 C3           1.8660    -1.0460    -0.1510 c5         1 H2U       0.089300
     10 O3           3.1150    -1.3650    -0.8030 oh         1 H2U      -0.703000
     11 C1           0.7280     0.6990     1.1000 c5         1 H2U       0.339700
     12 C2           2.1030    -0.0780     1.0510 c5         1 H2U       0.086300
     13 O2           3.2220     0.7580     0.7290 oh         1 H2U      -0.740000
     14 N1           0.0680     0.4030     2.3990 n          1 H2U      -0.416800
     15 C9          -0.6620    -0.7870     2.5990 c          1 H2U       0.626000
     16 O6          -0.6750    -1.7230     1.8200 o          1 H2U      -0.543000
     17 N3          -1.3550    -0.8720     3.7680 ns         1 H2U      -0.487500
     18 C8          -1.5530     0.0890     4.7080 c          1 H2U       0.586000
     19 O1          -2.1110    -0.1600     5.7640 o          1 H2U      -0.561000
     20 C7          -1.0040     1.4680     4.3770 c6         1 H2U      -0.187400
     21 C6           0.2520     1.3740     3.5000 c6         1 H2U       0.123000
     22 H5           0.9170    -1.4520    -2.8010 h1         1 H2U       0.010700
     23 H5'         -0.3830    -1.8390    -1.6710 h1         1 H2U       0.010700
     24 H4           1.4200     0.6530    -1.4650 h1         1 H2U       0.067700
     25 H3           1.3660    -1.9620     0.1960 h1         1 H2U       0.078700
     26 HO3          3.0000    -2.2250    -1.2720 ho         1 H2U       0.487000
     27 H1           0.8960     1.7820     1.0590 h2         1 H2U       0.053700
     28 H2           2.2970    -0.6380     1.9760 h1         1 H2U       0.038700
     29 HO2          3.6750     0.2200     0.0260 ho         1 H2U       0.521000
     30 HN3         -1.7880    -1.7630     3.9530 hn         1 H2U       0.328500
     31 H51         -0.8670     2.0660     5.2860 hc         1 H2U       0.084200
     32 H52         -1.7720     1.9560     3.7630 hc         1 H2U       0.084200
     33 H61          1.1020     1.0450     4.1160 h1         1 H2U       0.045200
     34 H62          0.4960     2.3680     3.1000 h1         1 H2U       0.045200
@<TRIPOS>BOND
     1     1     2 1   
     2     1     3 1   
     3     1     4 1   
     4     1     5 1   
     5     5     6 1   
     6     6     7 1   
     7     6    22 1   
     8     6    23 1   
     9     7     8 1   
    10     7     9 1   
    11     7    24 1   
    12     8    11 1   
    13     9    10 1   
    14     9    12 1   
    15     9    25 1   
    16    10    26 1   
    17    11    12 1   
    18    11    14 1   
    19    11    27 1   
    20    12    13 1   
    21    12    28 1   
    22    13    29 1   
    23    14    15 1   
    24    14    21 1   
    25    15    16 2   
    26    15    17 1   
    27    17    18 1   
    28    17    30 1   
    29    18    19 2   
    30    18    20 1   
    31    20    21 1   
    32    20    31 1   
    33    20    32 1   
    34    21    33 1   
    35    21    34 1   
@<TRIPOS>SUBSTRUCTURE
     1 H2U         1 TEMP              0 ****  ****    0 ROOT
