@<TRIPOS>MOLECULE
H2W
   28    30     1     0     0
SMALL
No Charge or Current Charge


@<TRIPOS>ATOM
      1 CAF         -0.9580    -0.7870     0.0110 cc         1 H2W      -0.237200
      2 CAE         -2.4060    -0.5390     0.0110 ca         1 H2W      -0.022800
      3 CAO         -3.3230    -1.6150     0.0150 ca         1 H2W       0.156000
      4 FAP         -2.8790    -2.8940     0.0180 f          1 H2W      -0.177000
      5 CAQ         -4.7070    -1.3780     0.0150 ca         1 H2W      -0.119000
      6 CAR         -5.1920    -0.0610     0.0110 ca         1 H2W      -0.108000
      7 CAS         -4.2910     1.0170     0.0080 ca         1 H2W      -0.060000
      8 CAD         -2.8990     0.7810     0.0070 ca         1 H2W      -0.146600
      9 CAB         -1.9260     1.9190     0.0030 c          1 H2W       0.572600
     10 OAC         -2.2660     3.0930    -0.0000 o          1 H2W      -0.550000
     11 NAA         -0.6030     1.5690     0.0030 ns         1 H2W      -0.383100
     12 CAG         -0.0770     0.2880     0.0070 cd         1 H2W       0.119400
     13 CAH          1.4110     0.1490     0.0060 ca         1 H2W      -0.074800
     14 CAI          2.2470     1.2960     0.0050 ca         1 H2W      -0.082000
     15 CAJ          3.6480     1.1760     0.0050 ca         1 H2W      -0.102500
     16 CAK          4.2470    -0.0890     0.0040 ca         1 H2W       0.130000
     17 Cl           6.0000    -0.2370     0.0030 cl         1 H2W      -0.190000
     18 CAM          3.4450    -1.2370     0.0050 ca         1 H2W      -0.102500
     19 CAN          2.0430    -1.1220     0.0060 ca         1 H2W      -0.082000
     20 HAF         -0.5950    -1.8060     0.0140 ha         1 H2W       0.211000
     21 HAQ         -5.3990    -2.2160     0.0180 ha         1 H2W       0.134000
     22 HAR         -6.2640     0.1260     0.0110 ha         1 H2W       0.124000
     23 HAS         -4.6770     2.0350     0.0050 ha         1 H2W       0.141000
     24 HAA          0.0220     2.3620     0.0000 hn         1 H2W       0.329500
     25 HAI          1.8320     2.3000     0.0060 ha         1 H2W       0.125500
     26 HAN          1.4720    -2.0430     0.0060 ha         1 H2W       0.125500
     27 HAJ          4.2710     2.0680     0.0040 ha         1 H2W       0.135000
     28 HAM          3.9090    -2.2200     0.0040 ha         1 H2W       0.135000
@<TRIPOS>BOND
     1     1     2 1   
     2     1    12 2   
     3     1    20 1   
     4     2     3 ar  
     5     2     8 ar  
     6     3     4 1   
     7     3     5 ar  
     8     5     6 ar  
     9     5    21 1   
    10     6     7 ar  
    11     6    22 1   
    12     7     8 ar  
    13     7    23 1   
    14     8     9 1   
    15     9    10 2   
    16     9    11 1   
    17    11    12 1   
    18    11    24 1   
    19    12    13 1   
    20    13    14 ar  
    21    13    19 ar  
    22    14    15 ar  
    23    14    25 1   
    24    15    16 ar  
    25    15    27 1   
    26    16    17 1   
    27    16    18 ar  
    28    18    19 ar  
    29    18    28 1   
    30    19    26 1   
@<TRIPOS>SUBSTRUCTURE
     1 H2W         1 TEMP              0 ****  ****    0 ROOT
