@<TRIPOS>MOLECULE
H2W
   28    30     1     0     0
SMALL
bcc


@<TRIPOS>ATOM
      1 CAF         -0.9240    -0.7530    -0.1460 cc         1 H2W      -0.187200
      2 CAE         -2.3350    -0.5320    -0.1040 ca         1 H2W      -0.022800
      3 CAO         -3.2690    -1.5510    -0.3290 ca         1 H2W       0.120900
      4 FAP         -2.8030    -2.7830    -0.5850 f          1 H2W      -0.141900
      5 CAQ         -4.6220    -1.3400    -0.2980 ca         1 H2W      -0.137000
      6 CAR         -5.1030    -0.0540    -0.0330 ca         1 H2W      -0.126000
      7 CAS         -4.2240     0.9830     0.1930 ca         1 H2W      -0.078000
      8 CAD         -2.8460     0.7520     0.1570 ca         1 H2W      -0.146600
      9 CAB         -1.9230     1.8610     0.4030 c          1 H2W       0.715100
     10 OAC         -2.2740     3.0050     0.6540 o          1 H2W      -0.625500
     11 NAA         -0.5960     1.5290     0.3460 ns         1 H2W      -0.450100
     12 CAG         -0.0850     0.2830     0.0820 cd         1 H2W       0.119400
     13 CAH          1.3800     0.1610     0.0380 ca         1 H2W      -0.074800
     14 CAI          2.1730     1.1900    -0.4700 ca         1 H2W      -0.100000
     15 CAJ          3.5520     1.0650    -0.5220 ca         1 H2W      -0.120500
     16 CAK          4.1440    -0.0990    -0.0600 ca         1 H2W       0.038400
     17 CL           5.8650    -0.2610    -0.1170 cl         1 H2W      -0.098400
     18 CAM          3.3780    -1.1360     0.4520 ca         1 H2W      -0.120500
     19 CAN          2.0010    -0.9990     0.5000 ca         1 H2W      -0.100000
     20 HAF         -0.5230    -1.7250    -0.3890 ha         1 H2W       0.161000
     21 HAQ         -5.3030    -2.1610    -0.4780 ha         1 H2W       0.152000
     22 HAR         -6.1700     0.1180    -0.0080 ha         1 H2W       0.142000
     23 HAS         -4.5940     1.9770     0.4000 ha         1 H2W       0.159000
     24 HAA          0.0490     2.2770     0.5660 hn         1 H2W       0.329500
     25 HAI          1.7260     2.0960    -0.8580 ha         1 H2W       0.143500
     26 HAN          1.4110    -1.8010     0.9220 ha         1 H2W       0.143500
     27 HAJ          4.1530     1.8670    -0.9280 ha         1 H2W       0.153000
     28 HAM          3.8460    -2.0370     0.8220 ha         1 H2W       0.153000
@<TRIPOS>BOND
     1     1     2 1   
     2     1    12 2   
     3     1    20 1   
     4     2     3 ar  
     5     2     8 ar  
     6     3     4 1   
     7     3     5 ar  
     8     5     6 ar  
     9     5    21 1   
    10     6     7 ar  
    11     6    22 1   
    12     7     8 ar  
    13     7    23 1   
    14     8     9 1   
    15     9    10 2   
    16     9    11 1   
    17    11    12 1   
    18    11    24 1   
    19    12    13 1   
    20    13    14 ar  
    21    13    19 ar  
    22    14    15 ar  
    23    14    25 1   
    24    15    16 ar  
    25    15    27 1   
    26    16    17 1   
    27    16    18 ar  
    28    18    19 ar  
    29    18    28 1   
    30    19    26 1   
@<TRIPOS>SUBSTRUCTURE
     1 H2W         1 TEMP              0 ****  ****    0 ROOT
