@<TRIPOS>MOLECULE
H2X
   47    48     1     0     0
SMALL
abcg2


@<TRIPOS>ATOM
      1 C13        -27.1140     5.2440    12.3780 ca         1 H2X       0.129100
      2 C1         -22.0890     8.5070     9.4770 c3         1 H2X       0.224100
      3 C3         -21.9310     8.3720    11.9590 c3         1 H2X       0.390400
      4 C4         -21.6230     9.3110    13.1290 c3         1 H2X      -0.118100
      5 C5         -20.8750     7.2530    11.9120 c3         1 H2X      -0.118100
      6 C7         -23.7630     6.9680    12.7460 ce         1 H2X       0.503900
      7 C8         -23.0250     6.0140    13.6530 c3         1 H2X      -0.185400
      8 C9         -25.2340     6.7520    12.6150 ca         1 H2X      -0.104900
      9 C10        -26.0980     7.8390    12.4660 ca         1 H2X      -0.099000
     10 C11        -27.4500     7.6190    12.2900 ca         1 H2X      -0.082000
     11 C12        -27.9720     6.3300    12.2350 ca         1 H2X      -0.188000
     12 C15        -28.8650     3.6690    12.0960 c3         1 H2X       0.150900
     13 C16        -25.7500     5.4640    12.5840 ca         1 H2X      -0.130000
     14 C17        -23.5370     8.2020     9.1620 ca         1 H2X      -0.147300
     15 C18        -24.3970     9.2780     8.9580 ca         1 H2X      -0.017000
     16 C19        -25.7300     9.0800     8.6460 ca         1 H2X      -0.058900
     17 C21        -26.2440     7.7970     8.5250 ca         1 H2X      -0.048000
     18 C22        -25.4020     6.7210     8.7280 ca         1 H2X      -0.147000
     19 C23        -24.0580     6.9100     9.0510 ca         1 H2X       0.164100
     20 N2         -21.9000     9.1970    10.7430 n7         1 H2X      -0.849400
     21 N6         -23.3030     7.9310    12.0690 n2         1 H2X      -0.604900
     22 O14        -27.5030     3.9540    12.3330 os         1 H2X      -0.345100
     23 O24        -23.3410     5.7850     9.2490 oh         1 H2X      -0.537100
     24 BR         -26.8680    10.5710     8.3900 br         1 H2X      -0.113100
     25 H1         -21.4580     7.6140     9.3730 h1         1 H2X       0.025200
     26 H2         -21.7230     9.1830     8.7010 h1         1 H2X       0.025200
     27 H3         -21.6480     8.7740    14.0760 hc         1 H2X       0.043533
     28 H4         -20.6270     9.7420    13.0180 hc         1 H2X       0.043533
     29 H5         -22.3470    10.1240    13.1700 hc         1 H2X       0.043533
     30 H6         -20.6330     6.8720    12.9010 hc         1 H2X       0.043533
     31 H7         -21.1860     6.4010    11.3070 hc         1 H2X       0.043533
     32 H8         -19.9500     7.6460    11.4860 hc         1 H2X       0.043533
     33 H9         -23.7010     5.5700    14.3810 hc         1 H2X       0.051033
     34 H10        -22.5750     5.1990    13.0830 hc         1 H2X       0.051033
     35 H11        -22.2290     6.5110    14.2020 hc         1 H2X       0.051033
     36 H12        -25.7040     8.8450    12.4910 ha         1 H2X       0.134000
     37 H13        -28.1230     8.4610    12.1880 ha         1 H2X       0.114000
     38 H14        -29.0350     6.1960    12.0860 ha         1 H2X       0.115000
     39 H15        -28.9570     2.5860    12.0840 h1         1 H2X       0.039033
     40 H16        -29.5100     4.0670    12.8830 h1         1 H2X       0.039033
     41 H17        -29.2040     4.0610    11.1330 h1         1 H2X       0.039033
     42 H18        -25.1010     4.6030    12.6940 ha         1 H2X       0.124000
     43 H19        -23.9980    10.2800     9.0540 ha         1 H2X       0.132000
     44 H20        -27.2840     7.6270     8.2810 ha         1 H2X       0.126000
     45 H21        -25.7900     5.7130     8.6480 ha         1 H2X       0.129000
     46 H22        -21.0030     9.6670    10.7070 hn         1 H2X       0.413000
     47 H24        -22.4200     5.9820     9.4470 ho         1 H2X       0.461000
@<TRIPOS>BOND
     1     1    11 ar  
     2     1    13 ar  
     3     1    22 1   
     4     2    14 1   
     5     2    20 1   
     6     2    25 1   
     7     2    26 1   
     8     3     4 1   
     9     3     5 1   
    10     3    20 1   
    11     3    21 1   
    12     4    27 1   
    13     4    28 1   
    14     4    29 1   
    15     5    30 1   
    16     5    31 1   
    17     5    32 1   
    18     6     7 1   
    19     6     8 1   
    20     6    21 2   
    21     7    33 1   
    22     7    34 1   
    23     7    35 1   
    24     8     9 ar  
    25     8    13 ar  
    26     9    10 ar  
    27     9    36 1   
    28    10    11 ar  
    29    10    37 1   
    30    11    38 1   
    31    12    22 1   
    32    12    39 1   
    33    12    40 1   
    34    12    41 1   
    35    13    42 1   
    36    14    15 ar  
    37    14    19 ar  
    38    15    16 ar  
    39    15    43 1   
    40    16    17 ar  
    41    16    24 1   
    42    17    18 ar  
    43    17    44 1   
    44    18    19 ar  
    45    18    45 1   
    46    19    23 1   
    47    20    46 1   
    48    23    47 1   
@<TRIPOS>SUBSTRUCTURE
     1 H2X         1 TEMP              0 ****  ****    0 ROOT
