@<TRIPOS>MOLECULE
H2X
   47    48     1     0     0
SMALL
No Charge or Current Charge


@<TRIPOS>ATOM
      1 C13        -27.2130     5.2480    12.4170 ca         1 H2X       0.129100
      2 C1         -21.9760     8.6320     9.3780 c3         1 H2X       0.224100
      3 C3         -21.8950     8.3630    11.9230 c3         1 H2X       0.390400
      4 C4         -21.5650     9.2830    13.1210 c3         1 H2X      -0.118100
      5 C5         -20.8850     7.1880    11.8180 c3         1 H2X      -0.118100
      6 C7         -23.8180     7.0000    12.7600 ce         1 H2X       0.503900
      7 C8         -23.0950     6.1230    13.7750 c3         1 H2X      -0.185400
      8 C9         -25.2970     6.7740    12.5910 ca         1 H2X      -0.104900
      9 C10        -26.1560     7.8480    12.2620 ca         1 H2X      -0.099000
     10 C11        -27.5250     7.6320    12.0370 ca         1 H2X      -0.082000
     11 C12        -28.0580     6.3360    12.1170 ca         1 H2X      -0.188000
     12 C15        -29.0540     3.6100    12.2650 c3         1 H2X       0.150900
     13 C16        -25.8440     5.4710    12.6430 ca         1 H2X      -0.130000
     14 C17        -23.4380     8.2560     9.1140 ca         1 H2X      -0.147300
     15 C18        -24.4160     9.2710     9.1910 ca         1 H2X      -0.017000
     16 C19        -25.7740     8.9720     8.9930 ca         1 H2X      -0.058900
     17 C21        -26.1750     7.6570     8.7110 ca         1 H2X      -0.048000
     18 C22        -25.2090     6.6410     8.6250 ca         1 H2X      -0.147000
     19 C23        -23.8490     6.9320     8.8250 ca         1 H2X       0.164100
     20 N2         -21.7480     9.2090    10.7300 n7         1 H2X      -0.849400
     21 N6         -23.2880     7.9340    12.0260 n2         1 H2X      -0.604900
     22 O14        -27.6740     3.9490    12.4900 os         1 H2X      -0.345100
     23 O24        -22.9530     5.9050     8.7350 oh         1 H2X      -0.537100
     24 Br         -27.0850    10.3560     9.1330 br         1 H2X      -0.113100
     25 H1         -21.3130     7.7760     9.2070 h1         1 H2X       0.025200
     26 H2         -21.6960     9.3820     8.6260 h1         1 H2X       0.025200
     27 H3         -21.6340     8.7500    14.0740 hc         1 H2X       0.043533
     28 H4         -20.5450     9.6770    13.0400 hc         1 H2X       0.043533
     29 H5         -22.2540    10.1350    13.1620 hc         1 H2X       0.043533
     30 H6         -20.6760     6.7470    12.7980 hc         1 H2X       0.043533
     31 H7         -21.2570     6.3960    11.1580 hc         1 H2X       0.043533
     32 H8         -19.9220     7.5350    11.4260 hc         1 H2X       0.043533
     33 H9         -23.8000     5.6140    14.4410 hc         1 H2X       0.051033
     34 H10        -22.5030     5.3460    13.2780 hc         1 H2X       0.051033
     35 H11        -22.4340     6.7030    14.4250 hc         1 H2X       0.051033
     36 H12        -25.7630     8.8600    12.1810 ha         1 H2X       0.134000
     37 H13        -28.1720     8.4720    11.7920 ha         1 H2X       0.114000
     38 H14        -29.1200     6.1960    11.9350 ha         1 H2X       0.115000
     39 H15        -29.2020     2.5280    12.3710 h1         1 H2X       0.039033
     40 H16        -29.7030     4.1150    12.9930 h1         1 H2X       0.039033
     41 H17        -29.3660     3.8980    11.2540 h1         1 H2X       0.039033
     42 H18        -25.2060     4.6140    12.8450 ha         1 H2X       0.124000
     43 H19        -24.1190    10.2900     9.4250 ha         1 H2X       0.132000
     44 H20        -27.2270     7.4240     8.5650 ha         1 H2X       0.126000
     45 H21        -25.5180     5.6220     8.4100 ha         1 H2X       0.129000
     46 H22        -20.7910     9.5720    10.7500 hn         1 H2X       0.413000
     47 H24        -22.0650     6.2510     8.9510 ho         1 H2X       0.461000
@<TRIPOS>BOND
     1     1    11 ar  
     2     1    13 ar  
     3     1    22 1   
     4     2    14 1   
     5     2    20 1   
     6     2    25 1   
     7     2    26 1   
     8     3     4 1   
     9     3     5 1   
    10     3    20 1   
    11     3    21 1   
    12     4    27 1   
    13     4    28 1   
    14     4    29 1   
    15     5    30 1   
    16     5    31 1   
    17     5    32 1   
    18     6     7 1   
    19     6     8 1   
    20     6    21 2   
    21     7    33 1   
    22     7    34 1   
    23     7    35 1   
    24     8     9 ar  
    25     8    13 ar  
    26     9    10 ar  
    27     9    36 1   
    28    10    11 ar  
    29    10    37 1   
    30    11    38 1   
    31    12    22 1   
    32    12    39 1   
    33    12    40 1   
    34    12    41 1   
    35    13    42 1   
    36    14    15 ar  
    37    14    19 ar  
    38    15    16 ar  
    39    15    43 1   
    40    16    17 ar  
    41    16    24 1   
    42    17    18 ar  
    43    17    44 1   
    44    18    19 ar  
    45    18    45 1   
    46    19    23 1   
    47    20    46 1   
    48    23    47 1   
@<TRIPOS>SUBSTRUCTURE
     1 H2X         1 TEMP              0 ****  ****    0 ROOT
