@<TRIPOS>MOLECULE
H2Y
   32    33     1     0     0
SMALL
bcc


@<TRIPOS>ATOM
      1 N1          -2.0640    -0.7730    -0.2730 ns         1 H2Y      -0.475100
      2 C4           2.2200    -0.6020     1.2190 ca         1 H2Y      -0.072000
      3 C5           1.6430    -0.8190    -0.0320 ca         1 H2Y      -0.115300
      4 C6           0.2590    -1.3780    -0.1550 c3         1 H2Y      -0.104100
      5 C7          -0.8210    -0.3280     0.0530 c          1 H2Y       0.671100
      6 C8          -3.2860    -0.1150    -0.1640 ca         1 H2Y      -0.041700
      7 C10         -4.7620     1.6740     0.3970 ca         1 H2Y      -0.219300
      8 C13          2.3850    -0.4850    -1.1550 ca         1 H2Y      -0.072000
      9 C1           6.2480     1.1030    -0.7120 c3         1 H2Y       0.124700
     10 C2           4.2270     0.2610     0.2010 ca         1 H2Y       0.148100
     11 C3           3.4900    -0.0720     1.3410 ca         1 H2Y      -0.189000
     12 C9          -3.4720     1.1660     0.3540 ca         1 H2Y      -0.118000
     13 C11         -5.8170     0.9100    -0.0700 ca         1 H2Y       0.369200
     14 N2          -5.6450    -0.3100    -0.5650 nb         1 H2Y      -0.643000
     15 C12         -4.4210    -0.8020    -0.6100 ca         1 H2Y       0.347200
     16 O2          -0.5920     0.7830     0.4860 o          1 H2Y      -0.561100
     17 C14          3.6660     0.0480    -1.0550 ca         1 H2Y      -0.189000
     18 H1          -2.1170    -1.7130    -0.6390 hn         1 H2Y       0.316500
     19 H2           1.6720    -0.8560     2.1180 ha         1 H2Y       0.129000
     20 H3           0.1190    -1.8500    -1.1310 hc         1 H2Y       0.063700
     21 H4           0.0940    -2.1660     0.5870 hc         1 H2Y       0.063700
     22 H5          -4.9410     2.6640     0.7950 ha         1 H2Y       0.143000
     23 H6           1.9670    -0.6460    -2.1410 ha         1 H2Y       0.129000
     24 H7           5.7760     1.8660    -1.3350 h1         1 H2Y       0.041033
     25 H8           7.1840     1.4980    -0.3250 h1         1 H2Y       0.041033
     26 H9           6.4650     0.2280    -1.3310 h1         1 H2Y       0.041033
     27 H10          3.9230     0.0890     2.3200 ha         1 H2Y       0.141000
     28 H11         -2.6460     1.7540     0.7160 ha         1 H2Y       0.171000
     29 H12         -6.8320     1.2910    -0.0440 h4         1 H2Y       0.022100
     30 H13         -4.3120    -1.8020    -1.0210 h4         1 H2Y       0.011100
     31 H14          4.2020     0.2840    -1.9640 ha         1 H2Y       0.141000
     32 O1           5.4560     0.7720     0.4110 os         1 H2Y      -0.316900
@<TRIPOS>BOND
     1     1     5 1   
     2     1     6 1   
     3     1    18 1   
     4     2     3 ar  
     5     2    11 ar  
     6     2    19 1   
     7     3     4 1   
     8     3     8 ar  
     9     4     5 1   
    10     4    20 1   
    11     4    21 1   
    12     5    16 2   
    13     6    12 ar  
    14     6    15 ar  
    15     7    12 ar  
    16     7    13 ar  
    17     7    22 1   
    18     8    17 ar  
    19     8    23 1   
    20     9    24 1   
    21     9    25 1   
    22     9    26 1   
    23     9    32 1   
    24    10    11 ar  
    25    10    17 ar  
    26    10    32 1   
    27    11    27 1   
    28    12    28 1   
    29    13    14 ar  
    30    13    29 1   
    31    14    15 ar  
    32    15    30 1   
    33    17    31 1   
@<TRIPOS>SUBSTRUCTURE
     1 H2Y         1 TEMP              0 ****  ****    0 ROOT
