@<TRIPOS>MOLECULE
H2Y
   32    33     1     0     0
SMALL
No Charge or Current Charge


@<TRIPOS>ATOM
      1 N1          -1.7340    -0.7510     0.0470 ns         1 H2Y      -0.149000
      2 C4           2.4130    -0.5510     1.6420 ca         1 H2Y      -0.054000
      3 C5           1.5710    -1.0530     0.6310 ca         1 H2Y      -0.115300
      4 C6           0.2830    -1.7870     0.9970 c3         1 H2Y      -0.104100
      5 C7          -0.8860    -0.8020     1.1470 c          1 H2Y       0.604100
      6 C8          -2.9050     0.0150    -0.2260 ca         1 H2Y      -0.069000
      7 C10         -4.6270     1.6360     0.2910 ca         1 H2Y      -0.136000
      8 C13          1.9240    -0.8650    -0.7190 ca         1 H2Y      -0.054000
      9 C1           5.5730     1.2380    -1.6560 c3         1 H2Y       0.147900
     10 C2           3.9490     0.3170    -0.0420 ca         1 H2Y       0.148100
     11 C3           3.5950     0.1290     1.3040 ca         1 H2Y      -0.171000
     12 C9          -3.4670     0.9420     0.6800 ca         1 H2Y      -0.100000
     13 C11         -5.1880     1.3920    -0.9730 ca         1 H2Y       0.303900
     14 N2          -4.6600     0.5070    -1.8490 nb         1 H2Y      -0.643000
     15 C12         -3.5440    -0.1610    -1.4740 ca         1 H2Y       0.281900
     16 O2          -1.0250    -0.1210     2.1570 o          1 H2Y      -0.561100
     17 C14          3.1070    -0.1840    -1.0570 ca         1 H2Y      -0.171000
     18 H1          -1.4690    -1.3750    -0.7050 hn         1 H2Y       0.150000
     19 H2           2.1510    -0.6860     2.6890 ha         1 H2Y       0.111000
     20 H3           0.0530    -2.5170     0.2120 hc         1 H2Y       0.063700
     21 H4           0.4200    -2.3150     1.9480 hc         1 H2Y       0.063700
     22 H5          -5.0900     2.3580     0.9590 ha         1 H2Y       0.125000
     23 H6           1.2820    -1.2460    -1.5110 ha         1 H2Y       0.111000
     24 H7           4.8400     1.8370    -2.2110 h1         1 H2Y       0.041033
     25 H8           6.5220     1.7880    -1.6430 h1         1 H2Y       0.041033
     26 H9           5.7350     0.2940    -2.1910 h1         1 H2Y       0.041033
     27 H10          4.2410     0.5140     2.0890 ha         1 H2Y       0.123000
     28 H11         -3.0370     1.1340     1.6580 ha         1 H2Y       0.153000
     29 H12         -6.0860     1.9190    -1.2940 h4         1 H2Y       0.022100
     30 H13         -3.1450    -0.8660    -2.2030 h4         1 H2Y       0.011100
     31 H14          3.3500    -0.0560    -2.1080 ha         1 H2Y       0.123000
     32 O1           5.1220     0.9930    -0.3120 os         1 H2Y      -0.340100
@<TRIPOS>BOND
     1     1     5 1   
     2     1     6 1   
     3     1    18 1   
     4     2     3 ar  
     5     2    11 ar  
     6     2    19 1   
     7     3     4 1   
     8     3     8 ar  
     9     4     5 1   
    10     4    20 1   
    11     4    21 1   
    12     5    16 2   
    13     6    12 ar  
    14     6    15 ar  
    15     7    12 ar  
    16     7    13 ar  
    17     7    22 1   
    18     8    17 ar  
    19     8    23 1   
    20     9    24 1   
    21     9    25 1   
    22     9    26 1   
    23     9    32 1   
    24    10    11 ar  
    25    10    17 ar  
    26    10    32 1   
    27    11    27 1   
    28    12    28 1   
    29    13    14 ar  
    30    13    29 1   
    31    14    15 ar  
    32    15    30 1   
    33    17    31 1   
@<TRIPOS>SUBSTRUCTURE
     1 H2Y         1 TEMP              0 ****  ****    0 ROOT
