@<TRIPOS>MOLECULE
H2Z
   66    69     1     0     0
SMALL
No Charge or Current Charge


@<TRIPOS>ATOM
      1 N1          -9.8300    -0.4250    -0.1120 n3         1 H2Z      -0.717600
      2 N3           8.4010    -2.1410    -1.3640 ns         1 H2Z      -0.360400
      3 C4           1.2230     1.2220    -1.2300 cc         1 H2Z      -0.208300
      4 C5          -0.0560     1.2340    -1.7120 cd         1 H2Z      -0.100000
      5 C6          -0.8860     1.2070    -0.5190 cd         1 H2Z      -0.050000
      6 C7          -2.3020     1.2070    -0.4580 ch         1 H2Z      -0.075000
      7 C10         -5.5370     1.2020     1.0550 ca         1 H2Z      -0.093500
      8 C13         -7.1540     0.8850    -1.2200 ca         1 H2Z      -0.101000
      9 C15         -9.2710     0.9150     0.1910 c3         1 H2Z       0.213100
     10 C17        -11.8900    -1.8450    -0.4770 c6         1 H2Z       0.153600
     11 C20         -0.0260     1.1810     0.5760 cc         1 H2Z      -0.094000
     12 C21          2.5310     1.1750     0.6810 c          1 H2Z       0.584800
     13 C22          7.7760     0.5800    -1.2960 c3         1 H2Z      -0.093100
     14 S            7.6390     0.1100     1.4250 s6         1 H2Z       1.057000
     15 O            8.9590    -0.5000     1.6210 o          1 H2Z      -0.513000
     16 C            7.0500    -0.3430    -0.2500 c3         1 H2Z      -0.310000
     17 C23          7.4250    -1.8350    -0.4190 c          1 H2Z       0.623100
     18 O4           6.8620    -2.7210     0.2100 o          1 H2Z      -0.578100
     19 O3           8.6180    -3.5070    -1.8000 oh         1 H2Z      -0.417100
     20 C1           5.4880    -0.2030    -0.4200 c3         1 H2Z      -0.084400
     21 N            3.4140     1.1960    -0.4100 n          1 H2Z      -0.425800
     22 O2           2.8210     1.1450     1.8710 o          1 H2Z      -0.532000
     23 N2           1.2670     1.1900     0.1100 n          1 H2Z       0.034200
     24 C3           2.6610     1.2300    -1.7020 c5         1 H2Z       0.178300
     25 C9          -4.9430     1.1040    -0.2160 ca         1 H2Z       0.034000
     26 C12         -5.7550     0.9450    -1.3540 ca         1 H2Z      -0.093500
     27 C14         -7.7520     0.9830     0.0510 ca         1 H2Z      -0.081300
     28 C11         -6.9350     1.1420     1.1890 ca         1 H2Z      -0.101000
     29 C19         -9.3130    -1.5040     0.7910 c6         1 H2Z       0.125300
     30 C18         -9.9210    -2.8930     0.4360 c6         1 H2Z       0.153600
     31 O1         -11.3680    -2.8290     0.4490 os         1 H2Z      -0.450000
     32 C16        -11.3250    -0.4320    -0.1400 c6         1 H2Z       0.125300
     33 H25          8.7310    -1.4130    -1.9940 hn         1 H2Z       0.349500
     34 H6          -0.3760     1.2580    -2.7490 ha         1 H2Z       0.146000
     35 H7          -4.9160     1.3240     1.9400 ha         1 H2Z       0.119000
     36 H10         -7.7760     0.7570    -2.1030 ha         1 H2Z       0.120500
     37 H11         -9.7050     1.6580    -0.4930 h1         1 H2Z       0.040200
     38 H12         -9.5550     1.2180     1.2080 h1         1 H2Z       0.040200
     39 H16        -11.6100    -2.1270    -1.5020 h1         1 H2Z       0.050950
     40 H15        -12.9870    -1.8350    -0.4120 h1         1 H2Z       0.050950
     41 H21         -0.1890     1.1560     1.6460 h4         1 H2Z       0.174000
     42 H22          8.8690     0.5010    -1.2220 hc         1 H2Z       0.060700
     43 H24          7.4790     0.3300    -2.3220 hc         1 H2Z       0.060700
     44 H23          7.5330     1.6380    -1.1380 hc         1 H2Z       0.060700
     45 H27          5.5180    -0.2200     2.4440 h1         1 H2Z       0.119033
     46 H29          6.5310    -1.7180     2.4730 h1         1 H2Z       0.119033
     47 H28          6.8820    -0.3670     3.6070 h1         1 H2Z       0.119033
     48 H26          9.5930    -3.6290    -1.7090 ho         1 H2Z       0.454000
     49 H            5.2180    -0.5640    -1.4210 hc         1 H2Z       0.071200
     50 H1           4.9740    -0.8770     0.2760 hc         1 H2Z       0.071200
     51 H2           5.1190     1.6170     0.7390 h1         1 H2Z       0.073700
     52 H3           5.2970     1.8910    -1.0020 h1         1 H2Z       0.073700
     53 H5           2.8790     0.3510    -2.3220 h1         1 H2Z       0.068200
     54 H4           2.8840     2.1390    -2.2780 h1         1 H2Z       0.068200
     55 H9          -5.3050     0.8660    -2.3410 ha         1 H2Z       0.119000
     56 H8          -7.3840     1.2170     2.1770 ha         1 H2Z       0.120500
     57 H20         -8.2180    -1.5770     0.7200 h1         1 H2Z       0.042700
     58 H19         -9.5530    -1.2720     1.8390 h1         1 H2Z       0.042700
     59 H17         -9.5810    -3.2090    -0.5610 h1         1 H2Z       0.050950
     60 H18         -9.5880    -3.6450     1.1650 h1         1 H2Z       0.050950
     61 H14        -11.7270    -0.1170     0.8340 h1         1 H2Z       0.042700
     62 H13        -11.6970     0.2830    -0.8890 h1         1 H2Z       0.042700
     63 C8          -3.5170     1.1640    -0.3520 cg         1 H2Z      -0.113000
     64 C2           4.8770     1.2100    -0.2500 c3         1 H2Z       0.115000
     65 C24          6.5170    -0.6340     2.6110 c3         1 H2Z      -0.315100
     66 O5           7.5080     1.5640     1.5740 o          1 H2Z      -0.513000
@<TRIPOS>BOND
     1     1     9 1   
     2     1    29 1   
     3     1    32 1   
     4     2    17 1   
     5     2    19 1   
     6     2    33 1   
     7     3     4 2   
     8     3    23 1   
     9     3    24 1   
    10     4     5 1   
    11     4    34 1   
    12     5     6 1   
    13     5    11 2   
    14     6    63 3   
    15     7    25 ar  
    16     7    28 ar  
    17     7    35 1   
    18     8    26 ar  
    19     8    27 ar  
    20     8    36 1   
    21     9    27 1   
    22     9    37 1   
    23     9    38 1   
    24    10    31 1   
    25    10    32 1   
    26    10    39 1   
    27    10    40 1   
    28    11    23 1   
    29    11    41 1   
    30    12    21 1   
    31    12    22 2   
    32    12    23 1   
    33    13    16 1   
    34    13    42 1   
    35    13    43 1   
    36    13    44 1   
    37    14    15 2   
    38    14    16 1   
    39    14    65 1   
    40    14    66 2   
    41    16    17 1   
    42    16    20 1   
    43    17    18 2   
    44    19    48 1   
    45    20    49 1   
    46    20    50 1   
    47    20    64 1   
    48    21    24 1   
    49    21    64 1   
    50    24    53 1   
    51    24    54 1   
    52    25    26 ar  
    53    25    63 1   
    54    26    55 1   
    55    27    28 ar  
    56    28    56 1   
    57    29    30 1   
    58    29    57 1   
    59    29    58 1   
    60    30    31 1   
    61    30    59 1   
    62    30    60 1   
    63    32    61 1   
    64    32    62 1   
    65    45    65 1   
    66    46    65 1   
    67    47    65 1   
    68    51    64 1   
    69    52    64 1   
@<TRIPOS>SUBSTRUCTURE
     1 H2Z         1 TEMP              0 ****  ****    0 ROOT
