@<TRIPOS>MOLECULE
H2Z
   66    69     1     0     0
SMALL
abcg2


@<TRIPOS>ATOM
      1 N1          -9.7050    -0.4200    -0.0630 n3         1 H2Z      -0.717600
      2 N3           8.2190    -2.0990    -1.3750 ns         1 H2Z      -0.360400
      3 C4           1.2660     1.2630    -1.2560 cc         1 H2Z      -0.208300
      4 C5          -0.0350     1.2710    -1.6470 cd         1 H2Z      -0.100000
      5 C6          -0.8120     1.1050    -0.4460 cd         1 H2Z      -0.050000
      6 C7          -2.2220     1.0580    -0.3520 ch         1 H2Z      -0.075000
      7 C10         -5.4360     1.3960     1.0840 ca         1 H2Z      -0.093500
      8 C13         -7.0320     0.4290    -0.9660 ca         1 H2Z      -0.101000
      9 C15         -9.1250     0.8290     0.3810 c3         1 H2Z       0.213100
     10 C17        -11.7100    -1.6540    -0.6670 c6         1 H2Z       0.153600
     11 C20          0.0550     1.0020     0.6210 cc         1 H2Z      -0.094000
     12 C21          2.6140     1.0730     0.5940 c          1 H2Z       0.584800
     13 C22          7.7150     0.6220    -1.2620 c3         1 H2Z      -0.093100
     14 S            7.4520     0.1040     1.3690 s6         1 H2Z       1.057000
     15 O            8.7240    -0.5850     1.5880 o          1 H2Z      -0.513000
     16 C            6.9220    -0.3120    -0.3510 c3         1 H2Z      -0.310000
     17 C23          7.2540    -1.8050    -0.4980 c          1 H2Z       0.623100
     18 O4           6.6640    -2.6430     0.1580 o          1 H2Z      -0.578100
     19 O3           8.4810    -3.4000    -1.6670 oh         1 H2Z      -0.417100
     20 C1           5.4060    -0.1610    -0.5440 c3         1 H2Z      -0.084400
     21 N            3.4050     1.2490    -0.4840 n          1 H2Z      -0.425800
     22 O2           2.9260     0.9230     1.7540 o          1 H2Z      -0.532000
     23 N2           1.3040     1.1000     0.1000 n          1 H2Z       0.034200
     24 C3           2.6730     1.3660    -1.7380 c5         1 H2Z       0.178300
     25 C9          -4.8400     0.9670    -0.1040 ca         1 H2Z       0.034000
     26 C12         -5.6590     0.4810    -1.1300 ca         1 H2Z      -0.093500
     27 C14         -7.6280     0.8580     0.2190 ca         1 H2Z      -0.081300
     28 C11         -6.8110     1.3360     1.2380 ca         1 H2Z      -0.101000
     29 C19         -9.3230    -1.5350     0.7850 c6         1 H2Z       0.125300
     30 C18         -9.9280    -2.8210     0.2570 c6         1 H2Z       0.153600
     31 O1         -11.3330    -2.7350     0.1570 os         1 H2Z      -0.450000
     32 C16        -11.1510    -0.3410    -0.1540 c6         1 H2Z       0.125300
     33 H25          8.6410    -1.4330    -2.0040 hn         1 H2Z       0.349500
     34 H6          -0.4210     1.3830    -2.6470 ha         1 H2Z       0.146000
     35 H7          -4.8190     1.7710     1.8900 ha         1 H2Z       0.119000
     36 H10         -7.6500     0.0390    -1.7650 ha         1 H2Z       0.120500
     37 H11         -9.5600     1.6330    -0.2210 h1         1 H2Z       0.040200
     38 H12         -9.3830     1.0570     1.4290 h1         1 H2Z       0.040200
     39 H16        -11.3620    -1.8170    -1.6970 h1         1 H2Z       0.050950
     40 H15        -12.8000    -1.6180    -0.6820 h1         1 H2Z       0.050950
     41 H21         -0.1320     0.8710     1.6730 h4         1 H2Z       0.174000
     42 H22          8.7930     0.5190    -1.1350 hc         1 H2Z       0.060700
     43 H24          7.4640     0.4180    -2.3040 hc         1 H2Z       0.060700
     44 H23          7.4700     1.6640    -1.0740 hc         1 H2Z       0.060700
     45 H27          5.2760    -0.0760     2.3360 h1         1 H2Z       0.119033
     46 H29          6.1650    -1.6290     2.3790 h1         1 H2Z       0.119033
     47 H28          6.6080    -0.3040     3.4900 h1         1 H2Z       0.119033
     48 H26          9.2160    -3.6640    -1.0970 ho         1 H2Z       0.454000
     49 H            5.1860    -0.5240    -1.5520 hc         1 H2Z       0.071200
     50 H1           4.8800    -0.8310     0.1380 hc         1 H2Z       0.071200
     51 H2           5.1210     1.7020     0.5580 h1         1 H2Z       0.073700
     52 H3           5.2250     1.9140    -1.1730 h1         1 H2Z       0.073700
     53 H5           2.9380     0.5660    -2.4330 h1         1 H2Z       0.068200
     54 H4           2.8860     2.3210    -2.2240 h1         1 H2Z       0.068200
     55 H9          -5.2130     0.1390    -2.0550 ha         1 H2Z       0.119000
     56 H8          -7.2550     1.6660     2.1700 ha         1 H2Z       0.120500
     57 H20         -8.2360    -1.6390     0.7910 h1         1 H2Z       0.042700
     58 H19         -9.6390    -1.3740     1.8310 h1         1 H2Z       0.042700
     59 H17         -9.4880    -3.0510    -0.7240 h1         1 H2Z       0.050950
     60 H18         -9.6980    -3.6480     0.9310 h1         1 H2Z       0.050950
     61 H14        -11.6110    -0.0980     0.8200 h1         1 H2Z       0.042700
     62 H13        -11.4290     0.4570    -0.8490 h1         1 H2Z       0.042700
     63 C8          -3.4260     1.0170    -0.2560 cg         1 H2Z      -0.113000
     64 C2           4.8430     1.2540    -0.3950 c3         1 H2Z       0.115000
     65 C24          6.2410    -0.5530     2.4950 c3         1 H2Z      -0.315100
     66 O5           7.4350     1.5620     1.5070 o          1 H2Z      -0.513000
@<TRIPOS>BOND
     1     1     9 1   
     2     1    29 1   
     3     1    32 1   
     4     2    17 1   
     5     2    19 1   
     6     2    33 1   
     7     3     4 2   
     8     3    23 1   
     9     3    24 1   
    10     4     5 1   
    11     4    34 1   
    12     5     6 1   
    13     5    11 2   
    14     6    63 3   
    15     7    25 ar  
    16     7    28 ar  
    17     7    35 1   
    18     8    26 ar  
    19     8    27 ar  
    20     8    36 1   
    21     9    27 1   
    22     9    37 1   
    23     9    38 1   
    24    10    31 1   
    25    10    32 1   
    26    10    39 1   
    27    10    40 1   
    28    11    23 1   
    29    11    41 1   
    30    12    21 1   
    31    12    22 2   
    32    12    23 1   
    33    13    16 1   
    34    13    42 1   
    35    13    43 1   
    36    13    44 1   
    37    14    15 2   
    38    14    16 1   
    39    14    65 1   
    40    14    66 2   
    41    16    17 1   
    42    16    20 1   
    43    17    18 2   
    44    19    48 1   
    45    20    49 1   
    46    20    50 1   
    47    20    64 1   
    48    21    24 1   
    49    21    64 1   
    50    24    53 1   
    51    24    54 1   
    52    25    26 ar  
    53    25    63 1   
    54    26    55 1   
    55    27    28 ar  
    56    28    56 1   
    57    29    30 1   
    58    29    57 1   
    59    29    58 1   
    60    30    31 1   
    61    30    59 1   
    62    30    60 1   
    63    32    61 1   
    64    32    62 1   
    65    45    65 1   
    66    46    65 1   
    67    47    65 1   
    68    51    64 1   
    69    52    64 1   
@<TRIPOS>SUBSTRUCTURE
     1 H2Z         1 TEMP              0 ****  ****    0 ROOT
