@<TRIPOS>MOLECULE
H30
   48    51     1     0     0
SMALL
No Charge or Current Charge


@<TRIPOS>ATOM
      1 N1           3.6300    17.2790    55.7530 nv         1 H30      -1.047200
      2 C6           3.0190    16.2460    56.3930 c2         1 H30       0.644200
      3 C1           1.9010    16.3900    57.4200 cy         1 H30      -0.128000
      4 C3           2.1200    17.4020    58.6000 cy         1 H30      -0.059900
      5 C4           0.5880    17.7130    58.5150 cy         1 H30      -0.095400
      6 C2           0.6600    17.2620    57.0170 cy         1 H30      -0.059900
      7 N2           3.3780    15.0290    56.1810 ne         1 H30      -0.643100
      8 C7           2.5940    14.1840    56.9810 ca         1 H30       0.117400
      9 C8           2.6450    12.7880    57.0610 ca         1 H30      -0.053000
     10 C19          1.7610    12.1250    57.9410 ca         1 H30      -0.073800
     11 C11          0.8330    12.8720    58.7190 ca         1 H30       0.122100
     12 O1          -0.0300    12.1820    59.5510 os         1 H30      -0.337100
     13 C10         -1.0010    12.8460    60.3790 c3         1 H30       0.147900
     14 C9           0.8000    14.2880    58.6210 ca         1 H30      -0.154000
     15 C5           1.6950    14.9180    57.7430 ca         1 H30      -0.106300
     16 C12          1.8160    10.6400    58.0280 ce         1 H30      -0.029400
     17 C14          1.3870     9.8950    56.9790 c2         1 H30      -0.214200
     18 C15          1.3410     8.3860    56.8220 c3         1 H30       0.215000
     19 N3           2.4320     7.6960    57.5440 n3         1 H30      -0.724600
     20 C16          2.8510     6.4390    56.8850 c3         1 H30       0.159100
     21 C17          2.1670     7.4990    58.9910 c3         1 H30       0.172800
     22 C18          1.6870     8.7490    59.7620 c3         1 H30      -0.072400
     23 C13          2.3730    10.0590    59.3240 c3         1 H30      -0.018200
     24 H1           4.5320    17.0150    55.3740 hn         1 H30       0.494000
     25 H2           3.6270    18.1510    56.2680 hn         1 H30       0.494000
     26 H3           2.4670    16.9660    59.5440 hc         1 H30       0.057200
     27 H4           2.7600    18.2590    58.3610 hc         1 H30       0.057200
     28 H5           0.3090    18.7580    58.6810 hc         1 H30       0.052200
     29 H6          -0.0440    17.0890    59.1530 hc         1 H30       0.052200
     30 H7           0.8830    18.0770    56.3180 hc         1 H30       0.057200
     31 H8          -0.2090    16.7120    56.6410 hc         1 H30       0.057200
     32 H9           3.3560    12.2290    56.4600 ha         1 H30       0.135000
     33 H10         -1.5740    12.1100    60.9560 h1         1 H30       0.036367
     34 H11         -0.5100    13.5270    61.0860 h1         1 H30       0.036367
     35 H12         -1.7070    13.4220    59.7660 h1         1 H30       0.036367
     36 H13          0.1020    14.8790    59.2030 ha         1 H30       0.116000
     37 H14          1.0050    10.4080    56.0960 ha         1 H30       0.171000
     38 H15          1.4140     8.1700    55.7470 h1         1 H30       0.032700
     39 H16          0.3630     8.0080    57.1510 h1         1 H30       0.032700
     40 H18          3.7100     5.9950    57.4050 h1         1 H30       0.027700
     41 H19          2.0320     5.7070    56.8840 h1         1 H30       0.027700
     42 H20          3.1480     6.6260    55.8440 h1         1 H30       0.027700
     43 H21          1.4200     6.7050    59.1340 h1         1 H30       0.025200
     44 H22          3.0920     7.1510    59.4690 h1         1 H30       0.025200
     45 H23          0.6010     8.8580    59.6500 hc         1 H30       0.041700
     46 H24          1.8710     8.5850    60.8310 hc         1 H30       0.041700
     47 H25          3.4520     9.8890    59.2290 hc         1 H30       0.051200
     48 H26          2.2590    10.7870    60.1360 hc         1 H30       0.051200
@<TRIPOS>BOND
     1     1     2 1   
     2     1    24 1   
     3     1    25 1   
     4     2     3 1   
     5     2     7 2   
     6     3     4 1   
     7     3     6 1   
     8     3    15 1   
     9     4     5 1   
    10     4    26 1   
    11     4    27 1   
    12     5     6 1   
    13     5    28 1   
    14     5    29 1   
    15     6    30 1   
    16     6    31 1   
    17     7     8 1   
    18     8     9 ar  
    19     8    15 ar  
    20     9    10 ar  
    21     9    32 1   
    22    10    11 ar  
    23    10    16 1   
    24    11    12 1   
    25    11    14 ar  
    26    12    13 1   
    27    13    33 1   
    28    13    34 1   
    29    13    35 1   
    30    14    15 ar  
    31    14    36 1   
    32    16    17 2   
    33    16    23 1   
    34    17    18 1   
    35    17    37 1   
    36    18    19 1   
    37    18    38 1   
    38    18    39 1   
    39    19    20 1   
    40    19    21 1   
    41    20    40 1   
    42    20    41 1   
    43    20    42 1   
    44    21    22 1   
    45    21    43 1   
    46    21    44 1   
    47    22    23 1   
    48    22    45 1   
    49    22    46 1   
    50    23    47 1   
    51    23    48 1   
@<TRIPOS>SUBSTRUCTURE
     1 H30         1 TEMP              0 ****  ****    0 ROOT
