@<TRIPOS>MOLECULE
H30
   48    51     1     0     0
SMALL
bcc


@<TRIPOS>ATOM
      1 N1           3.5630    17.2440    55.8040 nv         1 H30      -0.936800
      2 C6           3.0230    16.1770    56.4000 c2         1 H30       0.644200
      3 C1           1.9340    16.3280    57.4400 cy         1 H30      -0.128000
      4 C3           2.1890    17.2450    58.6680 cy         1 H30      -0.059900
      5 C4           0.7470    17.7660    58.5550 cy         1 H30      -0.095400
      6 C2           0.6920    17.2030    57.1240 cy         1 H30      -0.059900
      7 N2           3.3640    14.9530    56.1420 ne         1 H30      -0.643100
      8 C7           2.5550    14.1480    56.9520 ca         1 H30       0.117400
      9 C8           2.5610    12.7640    57.0340 ca         1 H30      -0.071000
     10 C19          1.6860    12.1170    57.9070 ca         1 H30      -0.073800
     11 C11          0.7970    12.8750    58.6840 ca         1 H30       0.122100
     12 O1          -0.0440    12.1650    59.4740 os         1 H30      -0.313900
     13 C10         -0.9340    12.8650    60.3130 c3         1 H30       0.124700
     14 C9           0.7930    14.2700    58.6080 ca         1 H30      -0.172000
     15 C5           1.6780    14.8860    57.7430 ca         1 H30      -0.106300
     16 C12          1.7140    10.6360    58.0190 ce         1 H30      -0.029400
     17 C14          1.3100     9.8920    56.9890 c2         1 H30      -0.164200
     18 C15          1.3910     8.3960    56.8490 c3         1 H30       0.215000
     19 N3           2.4710     7.7860    57.6010 n3         1 H30      -0.724600
     20 C16          2.9680     6.5830    56.9710 c3         1 H30       0.159100
     21 C17          2.1480     7.5360    58.9900 c3         1 H30       0.172800
     22 C18          1.5750     8.7500    59.7070 c3         1 H30      -0.072400
     23 C13          2.2380    10.0680    59.3170 c3         1 H30      -0.018200
     24 H1           4.3320    17.1350    55.1650 hn         1 H30       0.438800
     25 H2           3.3300    18.1790    56.0890 hn         1 H30       0.438800
     26 H3           2.4830    16.7380    59.5870 hc         1 H30       0.057200
     27 H4           2.9250    18.0200    58.4480 hc         1 H30       0.057200
     28 H5           0.6000    18.8390    58.6690 hc         1 H30       0.052200
     29 H6           0.0640    17.2530    59.2320 hc         1 H30       0.052200
     30 H7           0.9140    17.9640    56.3750 hc         1 H30       0.057200
     31 H8          -0.2040    16.6650    56.8170 hc         1 H30       0.057200
     32 H9           3.2480    12.1770    56.4380 ha         1 H30       0.153000
     33 H10         -1.4910    12.1150    60.8700 h1         1 H30       0.036367
     34 H11         -0.4110    13.5110    61.0240 h1         1 H30       0.036367
     35 H12         -1.6430    13.4750    59.7460 h1         1 H30       0.036367
     36 H13          0.1100    14.8630    59.2020 ha         1 H30       0.134000
     37 H14          0.9010    10.4040    56.1230 ha         1 H30       0.121000
     38 H15          1.5650     8.1920    55.7890 h1         1 H30       0.032700
     39 H16          0.4120     7.9330    57.0680 h1         1 H30       0.032700
     40 H18          3.8250     6.2020    57.5310 h1         1 H30       0.027700
     41 H19          2.2240     5.7720    56.9140 h1         1 H30       0.027700
     42 H20          3.3060     6.7970    55.9560 h1         1 H30       0.027700
     43 H21          1.4420     6.6930    59.1000 h1         1 H30       0.025200
     44 H22          3.0730     7.2310    59.4900 h1         1 H30       0.025200
     45 H23          0.5000     8.8320    59.5260 hc         1 H30       0.041700
     46 H24          1.6840     8.5840    60.7820 hc         1 H30       0.041700
     47 H25          3.3250     9.9460    59.2540 hc         1 H30       0.051200
     48 H26          2.0730    10.7980    60.1100 hc         1 H30       0.051200
@<TRIPOS>BOND
     1     1     2 1   
     2     1    24 1   
     3     1    25 1   
     4     2     3 1   
     5     2     7 2   
     6     3     4 1   
     7     3     6 1   
     8     3    15 1   
     9     4     5 1   
    10     4    26 1   
    11     4    27 1   
    12     5     6 1   
    13     5    28 1   
    14     5    29 1   
    15     6    30 1   
    16     6    31 1   
    17     7     8 1   
    18     8     9 ar  
    19     8    15 ar  
    20     9    10 ar  
    21     9    32 1   
    22    10    11 ar  
    23    10    16 1   
    24    11    12 1   
    25    11    14 ar  
    26    12    13 1   
    27    13    33 1   
    28    13    34 1   
    29    13    35 1   
    30    14    15 ar  
    31    14    36 1   
    32    16    17 2   
    33    16    23 1   
    34    17    18 1   
    35    17    37 1   
    36    18    19 1   
    37    18    38 1   
    38    18    39 1   
    39    19    20 1   
    40    19    21 1   
    41    20    40 1   
    42    20    41 1   
    43    20    42 1   
    44    21    22 1   
    45    21    43 1   
    46    21    44 1   
    47    22    23 1   
    48    22    45 1   
    49    22    46 1   
    50    23    47 1   
    51    23    48 1   
@<TRIPOS>SUBSTRUCTURE
     1 H30         1 TEMP              0 ****  ****    0 ROOT
