@<TRIPOS>MOLECULE
H31
   36    38     1     0     0
SMALL
No Charge or Current Charge


@<TRIPOS>ATOM
      1 C4          -0.8390    -0.9250    -0.0550 cp         1 H31      -0.044000
      2 C5          -1.6440    -1.2720    -1.1640 ca         1 H31      -0.095000
      3 C6          -3.0180    -0.9780    -1.1760 ca         1 H31      -0.116000
      4 C7           0.6160    -1.2470    -0.0340 cp         1 H31      -0.038000
      5 C8           0.9560    -2.6110     0.1370 ca         1 H31      -0.096000
      6 C10          3.3140    -2.0730     0.3340 ca         1 H31      -0.102000
      7 C13          0.1950     1.5880    -1.0730 c5         1 H31       0.105000
      8 C15          1.2470     3.4460    -0.0540 c5         1 H31      -0.167400
      9 C16          2.0010     2.1920     0.3880 c          1 H31       0.566000
     10 C14          0.6540     3.0320    -1.4200 c5         1 H31      -0.091400
     11 N            1.3220     1.1150    -0.2250 n          1 H31      -0.253400
     12 C12          1.6900    -0.2930    -0.0840 ca         1 H31      -0.026000
     13 C11          3.0170    -0.7130     0.1600 ca         1 H31      -0.098000
     14 C9           2.2860    -3.0250     0.3070 ca         1 H31      -0.110000
     15 C3          -1.4560    -0.3020     1.0550 ca         1 H31      -0.095000
     16 C2          -2.8300    -0.0070     1.0440 ca         1 H31      -0.116000
     17 C1          -3.6180    -0.3430    -0.0730 ca         1 H31      -0.072300
     18 C           -5.1040    -0.0200    -0.0870 c3         1 H31      -0.047800
     19 H1          -1.1920    -1.7650    -2.0220 ha         1 H31       0.121500
     20 H2          -3.6170    -1.2450    -2.0440 ha         1 H31       0.112000
     21 H3           0.1650    -3.3570     0.1680 ha         1 H31       0.118000
     22 H4           4.3440    -2.3900     0.4860 ha         1 H31       0.117000
     23 H5          -0.7470     1.6200    -0.5130 h1         1 H31       0.052700
     24 H6           0.0590     0.9720    -1.9710 h1         1 H31       0.052700
     25 H7           0.4260     3.6110     0.6520 hc         1 H31       0.076700
     26 H8           1.8970     4.3270    -0.0620 hc         1 H31       0.076700
     27 H9           1.4180     3.0310    -2.2070 hc         1 H31       0.056200
     28 H10         -0.1700     3.6750    -1.7490 hc         1 H31       0.056200
     29 H11          3.8400    -0.0050     0.1570 ha         1 H31       0.124000
     30 H12          2.5160    -4.0790     0.4430 ha         1 H31       0.115000
     31 H13         -0.8560    -0.0400     1.9250 ha         1 H31       0.121500
     32 H14         -3.2810     0.4810     1.9050 ha         1 H31       0.112000
     33 H15         -5.2820     0.9790    -0.5030 hc         1 H31       0.042033
     34 H16         -5.6640    -0.7410    -0.6950 hc         1 H31       0.042033
     35 H17         -5.5280    -0.0420     0.9230 hc         1 H31       0.042033
     36 O            3.0650     2.1380     0.9890 o          1 H31      -0.542000
@<TRIPOS>BOND
     1     1     2 ar  
     2     1     4 1   
     3     1    15 ar  
     4     2     3 ar  
     5     2    19 1   
     6     3    17 ar  
     7     3    20 1   
     8     4     5 ar  
     9     4    12 ar  
    10     5    14 ar  
    11     5    21 1   
    12     6    13 ar  
    13     6    14 ar  
    14     6    22 1   
    15     7    10 1   
    16     7    11 1   
    17     7    23 1   
    18     7    24 1   
    19     8     9 1   
    20     8    10 1   
    21     8    25 1   
    22     8    26 1   
    23     9    11 1   
    24     9    36 2   
    25    10    27 1   
    26    10    28 1   
    27    11    12 1   
    28    12    13 ar  
    29    13    29 1   
    30    14    30 1   
    31    15    16 ar  
    32    15    31 1   
    33    16    17 ar  
    34    16    32 1   
    35    17    18 1   
    36    18    33 1   
    37    18    34 1   
    38    18    35 1   
@<TRIPOS>SUBSTRUCTURE
     1 H31         1 TEMP              0 ****  ****    0 ROOT
