@<TRIPOS>MOLECULE
H31
   36    38     1     0     0
SMALL
bcc


@<TRIPOS>ATOM
      1 C4          -0.8240    -0.9290     0.0380 cp         1 H31      -0.044000
      2 C5          -1.7050    -1.4730    -0.8940 ca         1 H31      -0.113000
      3 C6          -3.0510    -1.1360    -0.8790 ca         1 H31      -0.134000
      4 C7           0.6090    -1.2950     0.0170 cp         1 H31      -0.038000
      5 C8           0.9920    -2.6320     0.1180 ca         1 H31      -0.114000
      6 C10          3.3130    -2.0230     0.0330 ca         1 H31      -0.120000
      7 C13          0.6730     1.5290    -1.5260 c5         1 H31       0.105000
      8 C15          0.8300     3.2640     0.1300 c5         1 H31      -0.167400
      9 C16          1.3850     1.9700     0.6780 c          1 H31       0.708500
     10 C14          0.8000     3.0470    -1.3790 c5         1 H31      -0.091400
     11 N            1.2710     1.0340    -0.2930 n          1 H31      -0.413000
     12 C12          1.6100    -0.3250    -0.1090 ca         1 H31       0.066600
     13 C11          2.9500    -0.6910    -0.0940 ca         1 H31      -0.116000
     14 C9           2.3290    -2.9970     0.1310 ca         1 H31      -0.128000
     15 C3          -1.3310    -0.0510     0.9940 ca         1 H31      -0.113000
     16 C2          -2.6770     0.2800     1.0050 ca         1 H31      -0.134000
     17 C1          -3.5600    -0.2480     0.0660 ca         1 H31      -0.072300
     18 C           -5.0100     0.1400     0.0570 c3         1 H31      -0.047800
     19 H1          -1.3350    -2.1570    -1.6480 ha         1 H31       0.139500
     20 H2          -3.7130    -1.5720    -1.6180 ha         1 H31       0.130000
     21 H3           0.2270    -3.3930     0.2110 ha         1 H31       0.136000
     22 H4           4.3600    -2.2970     0.0470 ha         1 H31       0.135000
     23 H5          -0.3710     1.2140    -1.6060 h1         1 H31       0.052700
     24 H6           1.2090     1.1410    -2.3910 h1         1 H31       0.052700
     25 H7          -0.1760     3.4000     0.5400 hc         1 H31       0.076700
     26 H8           1.4270     4.1180     0.4470 hc         1 H31       0.076700
     27 H9           1.7350     3.3860    -1.8260 hc         1 H31       0.056200
     28 H10         -0.0160     3.5700    -1.8720 hc         1 H31       0.056200
     29 H11          3.7080     0.0740    -0.2010 ha         1 H31       0.142000
     30 H12          2.6010    -4.0400     0.2230 ha         1 H31       0.133000
     31 H13         -0.6780     0.3590     1.7550 ha         1 H31       0.139500
     32 H14         -3.0490     0.9560     1.7670 ha         1 H31       0.130000
     33 H15         -5.1880     0.9680    -0.6320 hc         1 H31       0.042033
     34 H16         -5.6430    -0.6880    -0.2650 hc         1 H31       0.042033
     35 H17         -5.3450     0.4600     1.0430 hc         1 H31       0.042033
     36 O            1.8250     1.7720     1.7960 o          1 H31      -0.617500
@<TRIPOS>BOND
     1     1     2 ar  
     2     1     4 1   
     3     1    15 ar  
     4     2     3 ar  
     5     2    19 1   
     6     3    17 ar  
     7     3    20 1   
     8     4     5 ar  
     9     4    12 ar  
    10     5    14 ar  
    11     5    21 1   
    12     6    13 ar  
    13     6    14 ar  
    14     6    22 1   
    15     7    10 1   
    16     7    11 1   
    17     7    23 1   
    18     7    24 1   
    19     8     9 1   
    20     8    10 1   
    21     8    25 1   
    22     8    26 1   
    23     9    11 1   
    24     9    36 2   
    25    10    27 1   
    26    10    28 1   
    27    11    12 1   
    28    12    13 ar  
    29    13    29 1   
    30    14    30 1   
    31    15    16 ar  
    32    15    31 1   
    33    16    17 ar  
    34    16    32 1   
    35    17    18 1   
    36    18    33 1   
    37    18    34 1   
    38    18    35 1   
@<TRIPOS>SUBSTRUCTURE
     1 H31         1 TEMP              0 ****  ****    0 ROOT
