@<TRIPOS>MOLECULE
H32
   30    32     1     0     0
SMALL
abcg2


@<TRIPOS>ATOM
      1 C01          3.9000     2.3330     0.0090 ca         1 H32      -0.104000
      2 C02          2.5530     2.6800     0.0470 ca         1 H32      -0.141000
      3 C03          1.6340     1.6490     0.0470 ca         1 H32      -0.102300
      4 C04          2.0400     0.3260     0.0210 ca         1 H32      -0.153600
      5 C05          3.3810    -0.0430    -0.0100 ca         1 H32      -0.026600
      6 C06          4.3050     1.0010    -0.0250 ca         1 H32      -0.112000
      7 C07          3.8560    -1.4860    -0.0130 c          1 H32       0.724600
      8 O08          3.8810    -2.0450     1.0950 o          1 H32      -0.698000
      9 O09          4.2080    -1.9360    -1.1150 o          1 H32      -0.698000
     10 C10          0.8470    -0.5360     0.0060 c          1 H32       0.590600
     11 O11          0.8240    -1.7510    -0.0400 o          1 H32      -0.487000
     12 N12         -0.2440     0.3050     0.0420 n          1 H32      -0.237400
     13 C13          0.1440     1.7080     0.0700 c5         1 H32       0.145300
     14 C14         -1.5950    -0.0640     0.0410 ca         1 H32       0.014000
     15 C15         -2.0320    -1.3910    -0.0100 ca         1 H32      -0.121000
     16 C16         -3.3840    -1.6910    -0.0090 ca         1 H32      -0.099000
     17 C17         -4.3560    -0.7010     0.0430 ca         1 H32       0.056100
     18 C18         -3.9020     0.6090     0.0940 ca         1 H32       0.093000
     19 C19         -2.5650     0.9410     0.0940 ca         1 H32      -0.187000
     20 F20         -4.8160     1.5980     0.1440 f          1 H32      -0.201000
     21 O21         -5.6580    -1.0450     0.0420 oh         1 H32      -0.537100
     22 H1           4.6510     3.1120     0.0040 ha         1 H32       0.090000
     23 H2           2.2460     3.7180     0.0710 ha         1 H32       0.095000
     24 H3           5.3640     0.7790    -0.0570 ha         1 H32       0.118000
     25 H5          -0.2280     2.2010     0.9720 h1         1 H32       0.047700
     26 H6          -0.2570     2.2420    -0.7950 h1         1 H32       0.047700
     27 H7          -1.3270    -2.2040    -0.0520 ha         1 H32       0.165000
     28 H8          -3.6960    -2.7280    -0.0490 ha         1 H32       0.126000
     29 H9          -2.3110     1.9910     0.1360 ha         1 H32       0.126000
     30 H10         -6.2260    -0.2670     0.0820 ho         1 H32       0.465000
@<TRIPOS>BOND
     1     1     2 ar  
     2     1     6 ar  
     3     1    22 1   
     4     2     3 ar  
     5     2    23 1   
     6     3     4 ar  
     7     3    13 1   
     8     4     5 ar  
     9     4    10 1   
    10     5     6 ar  
    11     5     7 1   
    12     6    24 1   
    13     7     8 1   
    14     7     9 1   
    15    10    11 2   
    16    10    12 1   
    17    12    13 1   
    18    12    14 1   
    19    13    25 1   
    20    13    26 1   
    21    14    15 ar  
    22    14    19 ar  
    23    15    16 ar  
    24    15    27 1   
    25    16    17 ar  
    26    16    28 1   
    27    17    18 ar  
    28    17    21 1   
    29    18    19 ar  
    30    18    20 1   
    31    19    29 1   
    32    21    30 1   
@<TRIPOS>SUBSTRUCTURE
     1 H32         1 TEMP              0 ****  ****    0 ROOT
