@<TRIPOS>MOLECULE
H32
   30    32     1     0     0
SMALL
No Charge or Current Charge


@<TRIPOS>ATOM
      1 C01          4.0080     2.3140    -0.0850 ca         1 H32      -0.104000
      2 C02          2.6510     2.6720    -0.2100 ca         1 H32      -0.141000
      3 C03          1.6780     1.6660    -0.1330 ca         1 H32      -0.102300
      4 C04          2.0420     0.3450     0.0600 ca         1 H32      -0.153600
      5 C05          3.3920    -0.0500     0.1800 ca         1 H32      -0.026600
      6 C06          4.3760     0.9650     0.1090 ca         1 H32      -0.112000
      7 C07          3.8010    -1.4930     0.3670 c          1 H32       0.724600
      8 O08          4.3310    -1.8070     1.4250 o          1 H32      -0.698000
      9 O09          3.6700    -2.2570    -0.5800 o          1 H32      -0.698000
     10 C10          0.8090    -0.4700     0.1280 c          1 H32       0.590600
     11 O11          0.7460    -1.6690     0.3660 o          1 H32      -0.487000
     12 N12         -0.2790     0.4090    -0.0850 n          1 H32      -0.237400
     13 C13          0.1700     1.8330    -0.2230 c5         1 H32       0.145300
     14 C14         -1.6710     0.0360    -0.1590 ca         1 H32       0.014000
     15 C15         -2.0680    -1.2640    -0.5490 ca         1 H32      -0.121000
     16 C16         -3.4160    -1.6630    -0.4750 ca         1 H32      -0.099000
     17 C17         -4.3830    -0.7870     0.0390 ca         1 H32       0.056100
     18 C18         -3.9870     0.4860     0.4940 ca         1 H32       0.093000
     19 C19         -2.6430     0.8830     0.4170 ca         1 H32      -0.187000
     20 F20         -4.9000     1.3310     1.0250 f          1 H32      -0.201000
     21 O21         -5.6910    -1.1830     0.1120 oh         1 H32      -0.537100
     22 H1           4.7770     3.0820    -0.1400 ha         1 H32       0.090000
     23 H2           2.3650     3.7110    -0.3580 ha         1 H32       0.095000
     24 H3           5.4270     0.7020     0.1990 ha         1 H32       0.118000
     25 H5          -0.2050     2.4640     0.5930 h1         1 H32       0.047700
     26 H6          -0.1350     2.2620    -1.1860 h1         1 H32       0.047700
     27 H7          -1.3430    -1.9670    -0.9500 ha         1 H32       0.165000
     28 H8          -3.7070    -2.6560    -0.8100 ha         1 H32       0.126000
     29 H9          -2.3680     1.8580     0.8090 ha         1 H32       0.126000
     30 H10         -6.2100    -0.4470     0.5050 ho         1 H32       0.465000
@<TRIPOS>BOND
     1     1     2 ar  
     2     1     6 ar  
     3     1    22 1   
     4     2     3 ar  
     5     2    23 1   
     6     3     4 ar  
     7     3    13 1   
     8     4     5 ar  
     9     4    10 1   
    10     5     6 ar  
    11     5     7 1   
    12     6    24 1   
    13     7     8 1   
    14     7     9 1   
    15    10    11 2   
    16    10    12 1   
    17    12    13 1   
    18    12    14 1   
    19    13    25 1   
    20    13    26 1   
    21    14    15 ar  
    22    14    19 ar  
    23    15    16 ar  
    24    15    27 1   
    25    16    17 ar  
    26    16    28 1   
    27    17    18 ar  
    28    17    21 1   
    29    18    19 ar  
    30    18    20 1   
    31    19    29 1   
    32    21    30 1   
@<TRIPOS>SUBSTRUCTURE
     1 H32         1 TEMP              0 ****  ****    0 ROOT
