@<TRIPOS>MOLECULE
H33
   21    22     1     0     0
SMALL
No Charge or Current Charge


@<TRIPOS>ATOM
      1 N1           1.5410     3.4580    -1.3450 n          1 H33      -0.372400
      2 C2           2.9230     3.5830    -1.5320 c          1 H33       0.629600
      3 C3           3.6810     2.3750    -1.2150 cc         1 H33      -0.340600
      4 C4           3.0790     1.2370    -0.7820 cd         1 H33       0.443900
      5 N5           1.7190     1.1620    -0.6210 n          1 H33      -0.359300
      6 C6           0.9140     2.2760    -0.9130 c          1 H33       0.622000
      7 N7           5.0360     2.0890    -1.2630 na         1 H33      -0.246500
      8 C8           5.1830     0.7910    -0.8550 cc         1 H33       0.530500
      9 N9           4.0130     0.2490    -0.5580 nd         1 H33      -0.686000
     10 C11          1.0670    -0.0870    -0.1570 c3         1 H33       0.100300
     11 C15          0.6800     4.6360    -1.6440 c3         1 H33       0.084300
     12 O19         -0.3030     2.2140    -0.7940 o          1 H33      -0.547000
     13 O20          3.4630     4.6050    -1.9300 o          1 H33      -0.529000
     14 Cl           6.7150    -0.0170    -0.7510 cl         1 H33      -0.081000
     15 H151        -0.1320     4.7130    -0.9090 h1         1 H33       0.059367
     16 H152         0.2450     4.5280    -2.6450 h1         1 H33       0.059367
     17 H153         1.2510     5.5720    -1.6030 h1         1 H33       0.059367
     18 H7           5.7950     2.7010    -1.5420 hn         1 H33       0.387000
     19 H111         0.4160     0.1280     0.7000 h1         1 H33       0.061033
     20 H112         1.8080    -0.8340     0.1520 h1         1 H33       0.061033
     21 H113         0.4600    -0.5090    -0.9690 h1         1 H33       0.061033
@<TRIPOS>BOND
     1     1     2 1   
     2     1     6 1   
     3     1    11 1   
     4     2     3 1   
     5     2    13 2   
     6     3     4 2   
     7     3     7 1   
     8     4     5 1   
     9     4     9 1   
    10     5     6 1   
    11     5    10 1   
    12     6    12 2   
    13     7     8 1   
    14     7    18 1   
    15     8     9 2   
    16     8    14 1   
    17    10    19 1   
    18    10    20 1   
    19    10    21 1   
    20    11    15 1   
    21    11    16 1   
    22    11    17 1   
@<TRIPOS>SUBSTRUCTURE
     1 H33         1 TEMP              0 ****  ****    0 ROOT
