@<TRIPOS>MOLECULE
H33
   21    22     1     0     0
SMALL
abcg2


@<TRIPOS>ATOM
      1 N1           1.5640     3.4100    -1.3500 n          1 H33      -0.372400
      2 C2           2.9330     3.5640    -1.5760 c          1 H33       0.629600
      3 C3           3.6580     2.3870    -1.2460 cc         1 H33      -0.340600
      4 C4           3.0600     1.2480    -0.7840 cd         1 H33       0.443900
      5 N5           1.7110     1.1700    -0.6060 n          1 H33      -0.359300
      6 C6           0.9250     2.2610    -0.8870 c          1 H33       0.622000
      7 N7           4.9970     2.0870    -1.2990 na         1 H33      -0.246500
      8 C8           5.1060     0.8260    -0.8750 cc         1 H33       0.530500
      9 N9           3.9610     0.2720    -0.5510 nd         1 H33      -0.686000
     10 C11          1.0750    -0.0400    -0.1110 c3         1 H33       0.100300
     11 C15          0.7400     4.5750    -1.6530 c3         1 H33       0.084300
     12 O19         -0.2790     2.2120    -0.7350 o          1 H33      -0.547000
     13 O20          3.4010     4.6030    -2.0050 o          1 H33      -0.529000
     14 CL           6.6020     0.0430    -0.7730 cl         1 H33      -0.081000
     15 H151        -0.2800     4.3870    -1.3430 h1         1 H33       0.059367
     16 H152         0.7520     4.7840    -2.7210 h1         1 H33       0.059367
     17 H153         1.1140     5.4460    -1.1190 h1         1 H33       0.059367
     18 H7           5.7470     2.6980    -1.5890 hn         1 H33       0.387000
     19 H111         0.6050     0.1380     0.8540 h1         1 H33       0.061033
     20 H112         1.8360    -0.8050     0.0070 h1         1 H33       0.061033
     21 H113         0.3260    -0.3960    -0.8150 h1         1 H33       0.061033
@<TRIPOS>BOND
     1     1     2 1   
     2     1     6 1   
     3     1    11 1   
     4     2     3 1   
     5     2    13 2   
     6     3     4 2   
     7     3     7 1   
     8     4     5 1   
     9     4     9 1   
    10     5     6 1   
    11     5    10 1   
    12     6    12 2   
    13     7     8 1   
    14     7    18 1   
    15     8     9 2   
    16     8    14 1   
    17    10    19 1   
    18    10    20 1   
    19    10    21 1   
    20    11    15 1   
    21    11    16 1   
    22    11    17 1   
@<TRIPOS>SUBSTRUCTURE
     1 H33         1 TEMP              0 ****  ****    0 ROOT
