@<TRIPOS>MOLECULE
H34
   56    60     1     0     0
SMALL
No Charge or Current Charge


@<TRIPOS>ATOM
      1 CAN         -1.1570     3.0620    -0.9790 c6         1 H34      -0.040200
      2 CBC         -2.6860     2.9040    -0.7420 c6         1 H34       0.005600
      3 CAP         -3.1090     3.8790     0.3810 c6         1 H34      -0.069400
      4 CAY         -3.0340     1.4380    -0.3840 ca         1 H34      -0.221300
      5 CAV         -3.1700     0.4340    -1.3610 ca         1 H34       0.366000
      6 NAA         -3.0270     0.7550    -2.6910 nv         1 H34      -1.092000
      7 CBA         -3.4580    -0.8900    -0.9600 ca         1 H34      -0.138000
      8 CAF         -3.5990    -1.9480    -1.8950 ca         1 H34      -0.074000
      9 CAE         -3.8860    -3.2500    -1.4560 ca         1 H34      -0.121000
     10 CAU         -4.0330    -3.5080    -0.0880 ca         1 H34       0.135000
     11 Cl1         -4.3930    -5.1390     0.4630 cl         1 H34      -0.200000
     12 CAG         -3.8920    -2.4700     0.8410 ca         1 H34      -0.090000
     13 CAZ         -3.6040    -1.1600     0.4220 ca         1 H34       0.315000
     14 NAS         -3.4760    -0.1970     1.3550 nb         1 H34      -0.712000
     15 CAX         -3.1910     1.0610     0.9660 ca         1 H34       0.427300
     16 CAO         -3.0900     2.0670     2.1170 c6         1 H34      -0.128700
     17 CBB         -2.4550     3.4130     1.6990 c6         1 H34      -0.022500
     18 CAD         -0.9480     3.2470     1.5210 c2         1 H34      -0.213200
     19 CAT         -0.3530     3.0750     0.3260 c2         1 H34      -0.111400
     20 CAL          1.1490     2.9090     0.1690 c3         1 H34      -0.033200
     21 CAJ          1.5640     1.4350    -0.0350 c3         1 H34      -0.074400
     22 CAK          3.0930     1.2460    -0.1410 c3         1 H34      -0.097400
     23 CAM          3.5040    -0.2300    -0.3440 c3         1 H34       0.078600
     24 NBD          4.9600    -0.4140    -0.4420 na         1 H34       0.123800
     25 CAH          5.8590    -0.4960     0.5910 cc         1 H34      -0.182000
     26 NAR          5.5770    -0.5180    -1.6530 nc         1 H34      -0.207800
     27 NAQ          6.8520    -0.6680    -1.4100 nd         1 H34      -0.364000
     28 CAW          7.0590    -0.6600    -0.0430 cd         1 H34       0.192300
     29 CAI          8.4340    -0.8060     0.5800 c3         1 H34       0.147300
     30 OAB          8.4750    -1.8450     1.5760 oh         1 H34      -0.666000
     31 HAN1        -0.8050     2.2570    -1.6360 hc         1 H34       0.050200
     32 HAN2        -0.9640     3.9990    -1.5200 hc         1 H34       0.050200
     33 HBC         -3.2190     3.2000    -1.6560 hc         1 H34       0.039700
     34 HAP1        -2.7930     4.9030     0.1390 hc         1 H34       0.047700
     35 HAP2        -4.2040     3.9020     0.4800 hc         1 H34       0.047700
     36 HBB         -2.6410     4.1640     2.4800 hc         1 H34       0.060700
     37 HAA1        -2.9680     1.7320    -2.9590 hn         1 H34       0.470500
     38 HAA2        -3.3240     0.0950    -3.4040 hn         1 H34       0.470500
     39 HAF         -3.4860    -1.7800    -2.9630 ha         1 H34       0.108000
     40 HAE         -3.9930    -4.0570    -2.1760 ha         1 H34       0.130000
     41 HAG         -4.0070    -2.6800     1.8990 ha         1 H34       0.146000
     42 HAO1        -4.1020     2.2520     2.5030 hc         1 H34       0.066200
     43 HAO2        -2.5220     1.6320     2.9500 hc         1 H34       0.066200
     44 HAD         -0.3560     3.2630     2.4380 ha         1 H34       0.173000
     45 HAL1         1.5130     3.5180    -0.6680 hc         1 H34       0.046200
     46 HAL2         1.6580     3.2880     1.0640 hc         1 H34       0.046200
     47 HAJ1         1.1830     0.8390     0.8040 hc         1 H34       0.047700
     48 HAJ2         1.0920     1.0440    -0.9440 hc         1 H34       0.047700
     49 HAK1         3.4760     1.8430    -0.9780 hc         1 H34       0.056200
     50 HAK2         3.5700     1.6280     0.7710 hc         1 H34       0.056200
     51 HAM1         3.1370    -0.8310     0.4970 h1         1 H34       0.070200
     52 HAM2         3.0380    -0.6160    -1.2600 h1         1 H34       0.070200
     53 HAH          5.5940    -0.4360     1.6370 h4         1 H34       0.176000
     54 HAI1         9.1620    -1.0160    -0.2160 h1         1 H34       0.037700
     55 HAI2         8.7100     0.1580     1.0270 h1         1 H34       0.037700
     56 HAB          9.3970    -1.8770     1.9190 ho         1 H34       0.448000
@<TRIPOS>BOND
     1     1     2 1   
     2     1    19 1   
     3     1    31 1   
     4     1    32 1   
     5     2     3 1   
     6     2     4 1   
     7     2    33 1   
     8     3    17 1   
     9     3    34 1   
    10     3    35 1   
    11     4     5 ar  
    12     4    15 ar  
    13     5     6 1   
    14     5     7 ar  
    15     6    37 1   
    16     6    38 1   
    17     7     8 ar  
    18     7    13 ar  
    19     8     9 ar  
    20     8    39 1   
    21     9    10 ar  
    22     9    40 1   
    23    10    11 1   
    24    10    12 ar  
    25    12    13 ar  
    26    12    41 1   
    27    13    14 ar  
    28    14    15 ar  
    29    15    16 1   
    30    16    17 1   
    31    16    42 1   
    32    16    43 1   
    33    17    18 1   
    34    17    36 1   
    35    18    19 2   
    36    18    44 1   
    37    19    20 1   
    38    20    21 1   
    39    20    45 1   
    40    20    46 1   
    41    21    22 1   
    42    21    47 1   
    43    21    48 1   
    44    22    23 1   
    45    22    49 1   
    46    22    50 1   
    47    23    24 1   
    48    23    51 1   
    49    23    52 1   
    50    24    25 1   
    51    24    26 1   
    52    25    28 2   
    53    25    53 1   
    54    26    27 2   
    55    27    28 1   
    56    28    29 1   
    57    29    30 1   
    58    29    54 1   
    59    29    55 1   
    60    30    56 1   
@<TRIPOS>SUBSTRUCTURE
     1 H34         1 TEMP              0 ****  ****    0 ROOT
