@<TRIPOS>MOLECULE
H34
   56    60     1     0     0
SMALL
abcg2


@<TRIPOS>ATOM
      1 CAN         -1.1530     3.1870    -0.9410 c6         1 H34      -0.040200
      2 CBC         -2.6540     2.9300    -0.7550 c6         1 H34       0.005600
      3 CAP         -3.1760     3.8870     0.3100 c6         1 H34      -0.069400
      4 CAY         -2.8990     1.4880    -0.3730 ca         1 H34      -0.221300
      5 CAV         -2.8750     0.4890    -1.3450 ca         1 H34       0.366000
      6 NAA         -2.6350     0.7700    -2.6520 nv         1 H34      -1.092000
      7 CBA         -3.0580    -0.8690    -0.9310 ca         1 H34      -0.138000
      8 CAF         -3.0300    -1.9660    -1.8180 ca         1 H34      -0.074000
      9 CAE         -3.2050    -3.2490    -1.3740 ca         1 H34      -0.121000
     10 CAU         -3.4150    -3.4710    -0.0020 ca         1 H34       0.135000
     11 CL1         -3.6360    -5.1000     0.5490 cl         1 H34      -0.200000
     12 CAG         -3.4420    -2.4420     0.8940 ca         1 H34      -0.090000
     13 CAZ         -3.2590    -1.1110     0.4470 ca         1 H34       0.315000
     14 NAS         -3.2810    -0.1330     1.3710 nb         1 H34      -0.712000
     15 CAX         -3.1050     1.1080     0.9700 ca         1 H34       0.427300
     16 CAO         -3.1720     2.1470     2.0600 c6         1 H34      -0.128700
     17 CBB         -2.5630     3.4830     1.6420 c6         1 H34      -0.022500
     18 CAD         -1.0700     3.3510     1.5260 c2         1 H34      -0.213200
     19 CAT         -0.4210     3.1990     0.3720 c2         1 H34      -0.111400
     20 CAL          1.0630     2.9750     0.3150 c3         1 H34      -0.033200
     21 CAJ          1.4050     1.5000     0.0970 c3         1 H34      -0.074400
     22 CAK          2.9000     1.2640    -0.0730 c3         1 H34      -0.097400
     23 CAM          3.2010    -0.2130    -0.2850 c3         1 H34       0.078600
     24 NBD          4.6180    -0.4680    -0.4580 na         1 H34       0.123800
     25 CAH          5.5280    -0.7800     0.4830 cc         1 H34      -0.182000
     26 NAR          5.1860    -0.3320    -1.6380 nc         1 H34      -0.207800
     27 NAQ          6.4500    -0.5560    -1.5000 nd         1 H34      -0.364000
     28 CAW          6.7120    -0.8370    -0.2070 cd         1 H34       0.192300
     29 CAI          8.0810    -1.1480     0.2900 c3         1 H34       0.147300
     30 OAB          7.9750    -1.5160     1.6420 oh         1 H34      -0.666000
     31 HAN1        -0.7130     2.4360    -1.6040 hc         1 H34       0.050200
     32 HAN2        -1.0030     4.1470    -1.4490 hc         1 H34       0.050200
     33 HBC         -3.1690     3.1550    -1.6960 hc         1 H34       0.039700
     34 HAP1        -2.8980     4.9100     0.0440 hc         1 H34       0.047700
     35 HAP2        -4.2670     3.8510     0.3650 hc         1 H34       0.047700
     36 HBB         -2.8000     4.2260     2.4090 hc         1 H34       0.060700
     37 HAA1        -2.7100     1.7240    -2.9620 hn         1 H34       0.470500
     38 HAA2        -2.9180     0.1100    -3.3550 hn         1 H34       0.470500
     39 HAF         -2.8620    -1.8240    -2.8770 ha         1 H34       0.108000
     40 HAE         -3.1800    -4.0790    -2.0660 ha         1 H34       0.130000
     41 HAG         -3.5960    -2.6140     1.9510 ha         1 H34       0.146000
     42 HAO1        -4.2240     2.2920     2.3330 hc         1 H34       0.066200
     43 HAO2        -2.6790     1.7500     2.9500 hc         1 H34       0.066200
     44 HAD         -0.5060     3.3330     2.4560 ha         1 H34       0.173000
     45 HAL1         1.4940     3.5670    -0.5010 hc         1 H34       0.046200
     46 HAL2         1.5340     3.3220     1.2380 hc         1 H34       0.046200
     47 HAJ1         1.0310     0.9210     0.9460 hc         1 H34       0.047700
     48 HAJ2         0.8760     1.1250    -0.7850 hc         1 H34       0.047700
     49 HAK1         3.2720     1.8350    -0.9270 hc         1 H34       0.056200
     50 HAK2         3.4390     1.6210     0.8090 hc         1 H34       0.056200
     51 HAM1         2.8640    -0.8030     0.5670 h1         1 H34       0.070200
     52 HAM2         2.6880    -0.5910    -1.1700 h1         1 H34       0.070200
     53 HAH          5.2690    -0.9350     1.5160 h4         1 H34       0.176000
     54 HAI1         8.5140    -1.9480    -0.3250 h1         1 H34       0.037700
     55 HAI2         8.7260    -0.2710     0.1540 h1         1 H34       0.037700
     56 HAB          8.8590    -1.6970     1.9740 ho         1 H34       0.448000
@<TRIPOS>BOND
     1     1     2 1   
     2     1    19 1   
     3     1    31 1   
     4     1    32 1   
     5     2     3 1   
     6     2     4 1   
     7     2    33 1   
     8     3    17 1   
     9     3    34 1   
    10     3    35 1   
    11     4     5 ar  
    12     4    15 ar  
    13     5     6 1   
    14     5     7 ar  
    15     6    37 1   
    16     6    38 1   
    17     7     8 ar  
    18     7    13 ar  
    19     8     9 ar  
    20     8    39 1   
    21     9    10 ar  
    22     9    40 1   
    23    10    11 1   
    24    10    12 ar  
    25    12    13 ar  
    26    12    41 1   
    27    13    14 ar  
    28    14    15 ar  
    29    15    16 1   
    30    16    17 1   
    31    16    42 1   
    32    16    43 1   
    33    17    18 1   
    34    17    36 1   
    35    18    19 2   
    36    18    44 1   
    37    19    20 1   
    38    20    21 1   
    39    20    45 1   
    40    20    46 1   
    41    21    22 1   
    42    21    47 1   
    43    21    48 1   
    44    22    23 1   
    45    22    49 1   
    46    22    50 1   
    47    23    24 1   
    48    23    51 1   
    49    23    52 1   
    50    24    25 1   
    51    24    26 1   
    52    25    28 2   
    53    25    53 1   
    54    26    27 2   
    55    27    28 1   
    56    28    29 1   
    57    29    30 1   
    58    29    54 1   
    59    29    55 1   
    60    30    56 1   
@<TRIPOS>SUBSTRUCTURE
     1 H34         1 TEMP              0 ****  ****    0 ROOT
