@<TRIPOS>MOLECULE
H35
   25    27     1     0     0
SMALL
No Charge or Current Charge


@<TRIPOS>ATOM
      1 CAM          5.5210     3.9450     1.3850 cc         1 H35      -0.174000
      2 CAO          6.0170     4.7170     0.3180 cc         1 H35      -0.192000
      3 CAN          5.1600     5.7730     0.1730 cd         1 H35       0.129900
      4 OAL          4.1380     5.7210     1.0950 os         1 H35      -0.219000
      5 CAK          4.3890     4.5780     1.8250 cd         1 H35       0.083300
      6 CAP          3.4410     4.2040     2.9460 c3         1 H35       0.204500
      7 N6           2.9520     2.8120     2.7810 nu         1 H35      -0.930100
      8 C6           2.1640     2.3200     1.7470 ca         1 H35       0.419900
      9 N1           1.5820     3.1990     0.9070 nb         1 H35      -0.267000
     10 C2           0.8250     2.6720    -0.0880 ca         1 H35       0.151900
     11 N3           0.5940     1.3580    -0.3230 nb         1 H35      -0.151000
     12 C4           1.1830     0.4970     0.5280 ca         1 H35       0.254000
     13 C5           1.9620     0.9460     1.5590 ca         1 H35      -0.262200
     14 N7           2.4180    -0.1520     2.2410 na         1 H35      -0.294600
     15 C8           1.8930    -1.2660     1.5960 cc         1 H35       0.428700
     16 N9           1.1320    -0.8980     0.5430 nd         1 H35      -0.639700
     17 HAM          5.9550     3.0280     1.7720 ha         1 H35       0.139000
     18 HAO          6.9060     4.5060    -0.2690 ha         1 H35       0.143000
     19 HAN          5.1660     6.6020    -0.5230 h4         1 H35       0.055100
     20 HAP1         3.9740     4.3130     3.9010 h1         1 H35       0.081200
     21 HAP2         2.5980     4.9100     2.9590 h1         1 H35       0.081200
     22 H6           3.3620     2.1030     3.3880 hn         1 H35       0.484000
     23 H2           0.3550     3.3780    -0.7690 h5         1 H35       0.049100
     24 H7           3.0170    -0.1790     3.0560 hn         1 H35       0.357000
     25 H8           2.0930    -2.2790     1.9270 h5         1 H35       0.065800
@<TRIPOS>BOND
     1     1     2 1   
     2     1     5 2   
     3     1    17 1   
     4     2     3 2   
     5     2    18 1   
     6     3     4 1   
     7     3    19 1   
     8     4     5 1   
     9     5     6 1   
    10     6     7 1   
    11     6    20 1   
    12     6    21 1   
    13     7     8 1   
    14     7    22 1   
    15     8     9 ar  
    16     8    13 ar  
    17     9    10 ar  
    18    10    11 ar  
    19    10    23 1   
    20    11    12 ar  
    21    12    13 ar  
    22    12    16 1   
    23    13    14 1   
    24    14    15 1   
    25    14    24 1   
    26    15    16 2   
    27    15    25 1   
@<TRIPOS>SUBSTRUCTURE
     1 H35         1 TEMP              0 ****  ****    0 ROOT
