@<TRIPOS>MOLECULE
H35
   25    27     1     0     0
SMALL
abcg2


@<TRIPOS>ATOM
      1 CAM          5.8800     4.9290     2.0330 cc         1 H35      -0.174000
      2 CAO          6.4560     5.1760     0.7480 cc         1 H35      -0.192000
      3 CAN          5.5040     4.8440    -0.1530 cd         1 H35       0.129900
      4 OAL          4.3880     4.4200     0.4780 os         1 H35      -0.219000
      5 CAK          4.6240     4.4740     1.8070 cd         1 H35       0.083300
      6 CAP          3.5370     4.0430     2.7280 c3         1 H35       0.204500
      7 N6           3.1420     2.6650     2.5390 nu         1 H35      -0.930100
      8 C6           2.1320     2.2790     1.7400 ca         1 H35       0.419900
      9 N1           1.3360     3.1860     1.1810 nb         1 H35      -0.267000
     10 C2           0.3170     2.7830     0.4180 ca         1 H35       0.151900
     11 N3          -0.0390     1.5550     0.1120 nb         1 H35      -0.151000
     12 C4           0.7530     0.6240     0.6640 ca         1 H35       0.254000
     13 C5           1.8400     0.9300     1.4770 ca         1 H35      -0.262200
     14 N7           2.3740    -0.2800     1.8330 na         1 H35      -0.294600
     15 C8           1.6130    -1.2200     1.2400 cc         1 H35       0.428700
     16 N9           0.6300    -0.7270     0.5290 nd         1 H35      -0.639700
     17 HAM          6.3410     5.0720     2.9970 ha         1 H35       0.139000
     18 HAO          7.4440     5.5470     0.5300 ha         1 H35       0.143000
     19 HAN          5.4750     4.8540    -1.2310 h4         1 H35       0.055100
     20 HAP1         3.8900     4.1670     3.7510 h1         1 H35       0.081200
     21 HAP2         2.6540     4.6730     2.6150 h1         1 H35       0.081200
     22 H6           3.7900     1.9650     2.8600 hn         1 H35       0.484000
     23 H2          -0.2880     3.5810     0.0020 h5         1 H35       0.049100
     24 H7           3.1760    -0.4610     2.4160 hn         1 H35       0.357000
     25 H8           1.8260    -2.2710     1.3620 h5         1 H35       0.065800
@<TRIPOS>BOND
     1     1     2 1   
     2     1     5 2   
     3     1    17 1   
     4     2     3 2   
     5     2    18 1   
     6     3     4 1   
     7     3    19 1   
     8     4     5 1   
     9     5     6 1   
    10     6     7 1   
    11     6    20 1   
    12     6    21 1   
    13     7     8 1   
    14     7    22 1   
    15     8     9 ar  
    16     8    13 ar  
    17     9    10 ar  
    18    10    11 ar  
    19    10    23 1   
    20    11    12 ar  
    21    12    13 ar  
    22    12    16 1   
    23    13    14 1   
    24    14    15 1   
    25    14    24 1   
    26    15    16 2   
    27    15    25 1   
@<TRIPOS>SUBSTRUCTURE
     1 H35         1 TEMP              0 ****  ****    0 ROOT
