@<TRIPOS>MOLECULE
H36
   54    57     1     0     0
SMALL
No Charge or Current Charge


@<TRIPOS>ATOM
      1 N28          7.3690    -0.5000    -0.4300 n2         1 H36      -0.811100
      2 C26          6.4260     0.3040    -0.1440 ce         1 H36       0.711800
      3 C25          6.7340     1.6700     0.2580 cc         1 H36      -0.316900
      4 S21          5.4510     2.8530     0.5470 ss         1 H36       0.227000
      5 C22          6.6210     4.1090     0.9240 cc         1 H36      -0.235500
      6 C23          7.9000     3.6310     0.8200 cd         1 H36      -0.138000
      7 C24          7.9660     2.2640     0.4430 cd         1 H36      -0.087000
      8 N27          5.1100    -0.0990    -0.1150 nu         1 H36      -0.943200
      9 C31          4.4360    -1.1940    -0.6540 ca         1 H36       0.341000
     10 C36          3.1760    -1.5150    -0.1290 ca         1 H36      -0.205000
     11 C32          4.9490    -1.9540    -1.7210 ca         1 H36      -0.186000
     12 C33          4.2200    -3.0360    -2.2400 ca         1 H36      -0.045000
     13 C34          2.9660    -3.3600    -1.6980 ca         1 H36      -0.230000
     14 C35          2.4400    -2.5930    -0.6390 ca         1 H36       0.174100
     15 O37          1.2120    -2.8580    -0.0700 os         1 H36      -0.336600
     16 C38          0.3730    -3.9410    -0.5200 c3         1 H36       0.163600
     17 C18         -0.9160    -3.9530     0.3280 c3         1 H36       0.163600
     18 O17         -1.7120    -2.8040    -0.0270 os         1 H36      -0.336600
     19 C15         -2.9290    -2.5420     0.5650 ca         1 H36       0.174100
     20 C14         -3.4840    -3.3740     1.5600 ca         1 H36      -0.230000
     21 C13         -4.7210    -3.0450     2.1370 ca         1 H36      -0.045000
     22 C12         -5.4040    -1.8920     1.7180 ca         1 H36      -0.186000
     23 C16         -3.6220    -1.3940     0.1530 ca         1 H36      -0.205000
     24 C11         -4.8660    -1.0700     0.7180 ca         1 H36       0.341000
     25 N07         -5.5770     0.0670     0.3410 nu         1 H36      -0.943200
     26 C06         -5.5280     0.8750    -0.7660 ce         1 H36       0.711800
     27 N08         -5.1430     0.4080    -1.8820 n2         1 H36      -0.811100
     28 C05         -6.0060     2.2440    -0.6540 cc         1 H36      -0.316900
     29 S01         -6.4690     2.9400     0.9020 ss         1 H36       0.227000
     30 C02         -6.8570     4.4830     0.1520 cc         1 H36      -0.235500
     31 C03         -6.6280     4.4410    -1.1980 cd         1 H36      -0.138000
     32 C04         -6.1470     3.1840    -1.6510 cd         1 H36      -0.087000
     33 H1           8.2450     0.0300    -0.3760 hn         1 H36       0.394900
     34 H2           6.2770     5.1000     1.1910 h4         1 H36       0.153000
     35 H3           8.7800     4.2400     1.0070 ha         1 H36       0.138500
     36 H4           8.9140     1.7460     0.3190 ha         1 H36       0.146500
     37 H5           4.5340     0.5080     0.4530 hn         1 H36       0.493000
     38 H6           2.7610    -0.9310     0.6860 ha         1 H36       0.133000
     39 H7           5.9060    -1.7060    -2.1660 ha         1 H36       0.135500
     40 H8           4.6250    -3.6200    -3.0650 ha         1 H36       0.111500
     41 H9           2.4200    -4.2010    -2.1160 ha         1 H36       0.116000
     42 H10          0.1120    -3.8240    -1.5800 h1         1 H36       0.047450
     43 H11          0.8890    -4.9010    -0.3930 h1         1 H36       0.047450
     44 H12         -1.4680    -4.8780     0.1200 h1         1 H36       0.047450
     45 H13         -0.6520    -3.9360     1.3930 h1         1 H36       0.047450
     46 H14         -2.9730    -4.2700     1.9000 ha         1 H36       0.116000
     47 H15         -5.1490    -3.6820     2.9090 ha         1 H36       0.111500
     48 H16         -6.3610    -1.6460     2.1690 ha         1 H36       0.135500
     49 H17         -3.1650    -0.7510    -0.5900 ha         1 H36       0.133000
     50 H18         -6.2660     0.3760     1.0170 hn         1 H36       0.493000
     51 H19         -4.9600    -0.5870    -1.7160 hn         1 H36       0.394900
     52 H20         -7.2200     5.3000     0.7630 h4         1 H36       0.153000
     53 H21         -6.7960     5.2870    -1.8580 ha         1 H36       0.138500
     54 H22         -5.9120     2.9850    -2.6940 ha         1 H36       0.146500
@<TRIPOS>BOND
     1     1     2 2   
     2     1    33 1   
     3     2     3 1   
     4     2     8 1   
     5     3     4 1   
     6     3     7 2   
     7     4     5 1   
     8     5     6 2   
     9     5    34 1   
    10     6     7 1   
    11     6    35 1   
    12     7    36 1   
    13     8     9 1   
    14     8    37 1   
    15     9    10 ar  
    16     9    11 ar  
    17    10    14 ar  
    18    10    38 1   
    19    11    12 ar  
    20    11    39 1   
    21    12    13 ar  
    22    12    40 1   
    23    13    14 ar  
    24    13    41 1   
    25    14    15 1   
    26    15    16 1   
    27    16    17 1   
    28    16    42 1   
    29    16    43 1   
    30    17    18 1   
    31    17    44 1   
    32    17    45 1   
    33    18    19 1   
    34    19    20 ar  
    35    19    23 ar  
    36    20    21 ar  
    37    20    46 1   
    38    21    22 ar  
    39    21    47 1   
    40    22    24 ar  
    41    22    48 1   
    42    23    24 ar  
    43    23    49 1   
    44    24    25 1   
    45    25    26 1   
    46    25    50 1   
    47    26    27 2   
    48    26    28 1   
    49    27    51 1   
    50    28    29 1   
    51    28    32 2   
    52    29    30 1   
    53    30    31 2   
    54    30    52 1   
    55    31    32 1   
    56    31    53 1   
    57    32    54 1   
@<TRIPOS>SUBSTRUCTURE
     1 H36         1 TEMP              0 ****  ****    0 ROOT
