@<TRIPOS>MOLECULE
H36
   54    57     1     0     0
SMALL
bcc


@<TRIPOS>ATOM
      1 N28          6.9790    -0.1200    -1.1570 n2         1 H36      -0.811100
      2 C26          6.0870     0.4500    -0.4470 ce         1 H36       0.711800
      3 C25          6.2510     1.7940     0.1450 cc         1 H36      -0.172000
      4 S21          4.9380     2.9030     0.3000 ss         1 H36      -0.062800
      5 C22          5.9530     4.1000     0.9770 cc         1 H36      -0.108600
      6 C23          7.2430     3.6720     1.0750 cd         1 H36      -0.156000
      7 C24          7.4150     2.3500     0.5950 cd         1 H36      -0.105000
      8 N27          4.8810    -0.1330    -0.1560 nu         1 H36      -0.749600
      9 C31          4.3150    -1.3070    -0.6430 ca         1 H36       0.202600
     10 C36          3.0590    -1.6400    -0.1340 ca         1 H36      -0.223000
     11 C32          4.9060    -2.1370    -1.6010 ca         1 H36      -0.204000
     12 C33          4.2180    -3.2630    -2.0240 ca         1 H36      -0.063000
     13 C34          2.9680    -3.6050    -1.5270 ca         1 H36      -0.248000
     14 C35          2.3880    -2.7780    -0.5670 ca         1 H36       0.174100
     15 O37          1.1850    -2.9980     0.0000 os         1 H36      -0.313400
     16 C38          0.3930    -4.0680    -0.4730 c3         1 H36       0.140400
     17 C18         -0.9200    -4.0420     0.2610 c3         1 H36       0.140400
     18 O17         -1.5860    -2.8370    -0.0610 os         1 H36      -0.313400
     19 C15         -2.7660    -2.5670     0.5280 ca         1 H36       0.174100
     20 C14         -3.4350    -3.4400     1.3810 ca         1 H36      -0.248000
     21 C13         -4.6450    -3.0360     1.9340 ca         1 H36      -0.063000
     22 C12         -5.2030    -1.8060     1.6400 ca         1 H36      -0.204000
     23 C16         -3.3050    -1.3130     0.2400 ca         1 H36      -0.223000
     24 C11         -4.5280    -0.9350     0.7820 ca         1 H36       0.202600
     25 N07         -5.0760     0.3250     0.5350 nu         1 H36      -0.749600
     26 C06         -5.0770     0.9910    -0.6760 ce         1 H36       0.711800
     27 N08         -4.7100     0.5510    -1.8120 n2         1 H36      -0.811100
     28 C05         -5.5620     2.3770    -0.5840 cc         1 H36      -0.172000
     29 S01         -5.4740     3.2840     0.8800 ss         1 H36      -0.062800
     30 C02         -6.1690     4.6570     0.1390 cc         1 H36      -0.108600
     31 C03         -6.4460     4.4360    -1.1770 cd         1 H36      -0.156000
     32 C04         -6.0960     3.1270    -1.5930 cd         1 H36      -0.105000
     33 H1           7.7630     0.5050    -1.3040 hn         1 H36       0.394900
     34 H2           5.5460     5.0590     1.2590 h4         1 H36       0.171000
     35 H3           8.0420     4.2780     1.4760 ha         1 H36       0.156500
     36 H4           8.3600     1.8260     0.6010 ha         1 H36       0.164500
     37 H5           4.3400     0.3110     0.5690 hn         1 H36       0.437800
     38 H6           2.5860    -1.0040     0.6060 ha         1 H36       0.151000
     39 H7           5.8800    -1.9090    -1.9980 ha         1 H36       0.153500
     40 H8           4.6760    -3.9030    -2.7670 ha         1 H36       0.129500
     41 H9           2.4740    -4.4970    -1.8870 ha         1 H36       0.134000
     42 H10          0.2280    -3.9870    -1.5540 h1         1 H36       0.047450
     43 H11          0.8710    -5.0340    -0.2800 h1         1 H36       0.047450
     44 H12         -1.5040    -4.9140    -0.0540 h1         1 H36       0.047450
     45 H13         -0.7550    -4.1210     1.3410 h1         1 H36       0.047450
     46 H14         -3.0420    -4.4170     1.6240 ha         1 H36       0.134000
     47 H15         -5.1670    -3.7090     2.6020 ha         1 H36       0.129500
     48 H16         -6.1550    -1.5200     2.0700 ha         1 H36       0.153500
     49 H17         -2.7390    -0.6360    -0.3870 ha         1 H36       0.151000
     50 H18         -5.7830     0.6140     1.1950 hn         1 H36       0.437800
     51 H19         -4.4660    -0.4340    -1.7820 hn         1 H36       0.394900
     52 H20         -6.3290     5.5590     0.7100 h4         1 H36       0.171000
     53 H21         -6.8870     5.1790    -1.8250 ha         1 H36       0.156500
     54 H22         -6.2400     2.7480    -2.5940 ha         1 H36       0.164500
@<TRIPOS>BOND
     1     1     2 2   
     2     1    33 1   
     3     2     3 1   
     4     2     8 1   
     5     3     4 1   
     6     3     7 2   
     7     4     5 1   
     8     5     6 2   
     9     5    34 1   
    10     6     7 1   
    11     6    35 1   
    12     7    36 1   
    13     8     9 1   
    14     8    37 1   
    15     9    10 ar  
    16     9    11 ar  
    17    10    14 ar  
    18    10    38 1   
    19    11    12 ar  
    20    11    39 1   
    21    12    13 ar  
    22    12    40 1   
    23    13    14 ar  
    24    13    41 1   
    25    14    15 1   
    26    15    16 1   
    27    16    17 1   
    28    16    42 1   
    29    16    43 1   
    30    17    18 1   
    31    17    44 1   
    32    17    45 1   
    33    18    19 1   
    34    19    20 ar  
    35    19    23 ar  
    36    20    21 ar  
    37    20    46 1   
    38    21    22 ar  
    39    21    47 1   
    40    22    24 ar  
    41    22    48 1   
    42    23    24 ar  
    43    23    49 1   
    44    24    25 1   
    45    25    26 1   
    46    25    50 1   
    47    26    27 2   
    48    26    28 1   
    49    27    51 1   
    50    28    29 1   
    51    28    32 2   
    52    29    30 1   
    53    30    31 2   
    54    30    52 1   
    55    31    32 1   
    56    31    53 1   
    57    32    54 1   
@<TRIPOS>SUBSTRUCTURE
     1 H36         1 TEMP              0 ****  ****    0 ROOT
