@<TRIPOS>MOLECULE
H37
   68    69     1     0     0
SMALL
bcc


@<TRIPOS>ATOM
      1 N           62.7040    15.2360    51.6460 n8         1 H37      -0.869800
      2 CA          63.0110    15.7550    50.3340 c3         1 H37       0.095500
      3 C           62.9590    17.2760    50.3750 c          1 H37       0.680100
      4 O           63.0270    17.9090    51.4170 o          1 H37      -0.595100
      5 CB          64.3670    15.3020    49.7300 c3         1 H37      -0.069100
      6 CG          65.5620    15.9120    50.4040 ca         1 H37      -0.087300
      7 CD1         66.0480    15.4100    51.6110 ca         1 H37      -0.121500
      8 CD2         66.1950    17.0220    49.8450 ca         1 H37      -0.121500
      9 CE1         67.1250    16.0100    52.2500 ca         1 H37      -0.124500
     10 CE2         67.2730    17.6230    50.4800 ca         1 H37      -0.124500
     11 CZ          67.7400    17.1210    51.6880 ca         1 H37      -0.124000
     12 N1          62.8920    17.8820    49.1760 ns         1 H37      -0.558900
     13 CA1         62.8910    19.3140    49.0700 c3         1 H37       0.042700
     14 C1          61.5780    19.8800    49.6090 c          1 H37       0.652100
     15 O1          60.5140    19.3140    49.4310 o          1 H37      -0.588100
     16 CB1         63.0920    19.7420    47.6100 c3         1 H37      -0.042100
     17 CG1         64.4360    19.3040    47.0980 ca         1 H37      -0.085300
     18 CD11        64.5700    18.1650    46.3090 ca         1 H37      -0.125500
     19 CD21        65.5840    20.0080    47.4540 ca         1 H37      -0.125500
     20 CE11        65.8220    17.7330    45.8910 ca         1 H37      -0.125500
     21 CE21        66.8370    19.5820    47.0360 ca         1 H37      -0.125500
     22 CZ1         66.9600    18.4390    46.2550 ca         1 H37      -0.123000
     23 N2          61.7010    21.0570    50.2490 ns         1 H37      -0.563900
     24 CA2         60.6020    21.7150    50.9060 c3         1 H37       0.012700
     25 C2          59.8970    22.7530    50.0360 c          1 H37       0.559100
     26 O2          58.8290    23.1980    50.3710 o          1 H37      -0.489100
     27 CB2         61.0490    22.3190    52.2420 c3         1 H37      -0.076400
     28 CG2         61.5320    21.2550    53.2180 c3         1 H37      -0.116400
     29 CD          61.9470    21.8620    54.5540 c3         1 H37       0.229800
     30 NE          62.4450    20.9000    55.5070 nu         1 H37      -0.848200
     31 CZ2         61.6030    20.0490    56.1700 c2         1 H37       0.801100
     32 NH2         62.2530    19.0850    56.9130 nv         1 H37      -0.961800
     33 NH1         60.3330    20.2340    56.1450 n2         1 H37      -0.897100
     34 C3          60.5450    23.2030    48.7440 c3         1 H37      -0.053000
     35 CL1         62.1110    23.9940    49.1160 cl         1 H37      -0.191400
     36 HN          62.7880    14.2280    51.6350 hn         1 H37       0.352800
     37 HNA         63.3720    15.5760    52.3280 hn         1 H37       0.352800
     38 HA          62.2340    15.4050    49.6460 h1         1 H37       0.072700
     39 HB          64.4030    14.2120    49.7990 hc         1 H37       0.052200
     40 HBA         64.3840    15.5440    48.6650 hc         1 H37       0.052200
     41 HD1         65.5880    14.5320    52.0500 ha         1 H37       0.129000
     42 HD2         65.8470    17.4200    48.8990 ha         1 H37       0.129000
     43 HE1         67.4870    15.6040    53.1860 ha         1 H37       0.130000
     44 HE2         67.7520    18.4820    50.0270 ha         1 H37       0.130000
     45 HZ          68.5810    17.5870    52.1850 ha         1 H37       0.131000
     46 HN1         62.7290    17.3300    48.3490 hn         1 H37       0.323500
     47 HA1         63.7250    19.7100    49.6570 h1         1 H37       0.075700
     48 HB1         62.2890    19.3270    46.9950 hc         1 H37       0.065200
     49 HB1A        63.0040    20.8300    47.5590 hc         1 H37       0.065200
     50 HD11        63.6870    17.6100    46.0130 ha         1 H37       0.129000
     51 HD21        65.4970    20.9010    48.0630 ha         1 H37       0.129000
     52 HE11        65.9070    16.8440    45.2790 ha         1 H37       0.134000
     53 HE21        67.7180    20.1430    47.3190 ha         1 H37       0.134000
     54 HZ1         67.9360    18.1040    45.9300 ha         1 H37       0.135000
     55 HN2         62.6260    21.4370    50.3850 hn         1 H37       0.322500
     56 HA2         59.8420    20.9580    51.1170 h1         1 H37       0.108700
     57 HB2         61.8360    23.0600    52.0650 hc         1 H37       0.057200
     58 HB2A        60.2040    22.8590    52.6740 hc         1 H37       0.057200
     59 HG2         60.7360    20.5260    53.3870 hc         1 H37       0.059200
     60 HG2A        62.3800    20.7090    52.7970 hc         1 H37       0.059200
     61 HD          61.1040    22.3920    55.0000 h1         1 H37       0.056700
     62 HDA         62.7330    22.6030    54.3930 h1         1 H37       0.056700
     63 HNE         63.3820    20.5740    55.3350 hn         1 H37       0.411800
     64 HNH2        61.6910    18.2870    57.1630 hn         1 H37       0.396800
     65 HNHA        63.1780    18.8140    56.6180 hn         1 H37       0.396800
     66 HNH1        59.8620    19.5590    56.7350 hn         1 H37       0.378400
     67 H3          60.7450    22.3670    48.0750 h1         1 H37       0.088700
     68 H3A         59.9140    23.9320    48.2410 h1         1 H37       0.088700
@<TRIPOS>BOND
     1     1     2 1   
     2     1    36 1   
     3     1    37 1   
     4     2     3 1   
     5     2     5 1   
     6     2    38 1   
     7     3     4 2   
     8     3    12 1   
     9     5     6 1   
    10     5    39 1   
    11     5    40 1   
    12     6     7 ar  
    13     6     8 ar  
    14     7     9 ar  
    15     7    41 1   
    16     8    10 ar  
    17     8    42 1   
    18     9    11 ar  
    19     9    43 1   
    20    10    11 ar  
    21    10    44 1   
    22    11    45 1   
    23    12    13 1   
    24    12    46 1   
    25    13    14 1   
    26    13    16 1   
    27    13    47 1   
    28    14    15 2   
    29    14    23 1   
    30    16    17 1   
    31    16    48 1   
    32    16    49 1   
    33    17    18 ar  
    34    17    19 ar  
    35    18    20 ar  
    36    18    50 1   
    37    19    21 ar  
    38    19    51 1   
    39    20    22 ar  
    40    20    52 1   
    41    21    22 ar  
    42    21    53 1   
    43    22    54 1   
    44    23    24 1   
    45    23    55 1   
    46    24    25 1   
    47    24    27 1   
    48    24    56 1   
    49    25    26 2   
    50    25    34 1   
    51    27    28 1   
    52    27    57 1   
    53    27    58 1   
    54    28    29 1   
    55    28    59 1   
    56    28    60 1   
    57    29    30 1   
    58    29    61 1   
    59    29    62 1   
    60    30    31 1   
    61    30    63 1   
    62    31    32 1   
    63    31    33 2   
    64    32    64 1   
    65    32    65 1   
    66    33    66 1   
    67    34    35 1   
    68    34    67 1   
    69    34    68 1   
@<TRIPOS>SUBSTRUCTURE
     1 H37         1 TEMP              0 ****  ****    0 ROOT
