@<TRIPOS>MOLECULE
H37
   68    69     1     0     0
SMALL
No Charge or Current Charge


@<TRIPOS>ATOM
      1 N           64.6460    15.5630    52.2670 n8         1 H37      -0.980200
      2 CA          64.1400    15.9920    50.9180 c3         1 H37       0.095500
      3 C           64.2020    17.5380    50.6200 c          1 H37       0.613100
      4 O           65.1690    18.2390    50.8990 o          1 H37      -0.595100
      5 CB          64.8190    15.1660    49.7910 c3         1 H37      -0.069100
      6 CG          66.3420    15.0710    49.8870 ca         1 H37      -0.087300
      7 CD1         66.9550    13.9120    50.4060 ca         1 H37      -0.103500
      8 CD2         67.1520    16.1310    49.4340 ca         1 H37      -0.103500
      9 CE1         68.3560    13.8210    50.4800 ca         1 H37      -0.106500
     10 CE2         68.5520    16.0400    49.5060 ca         1 H37      -0.106500
     11 CZ          69.1560    14.8850    50.0310 ca         1 H37      -0.106000
     12 N1          63.0480    18.0730    50.0810 ns         1 H37      -0.491900
     13 CA1         62.8720    19.4860    49.6710 c3         1 H37       0.042700
     14 C1          61.5120    20.0390    50.1850 c          1 H37       0.585100
     15 O1          60.6140    19.3210    50.6090 o          1 H37      -0.588100
     16 CB1         62.9900    19.6330    48.1310 c3         1 H37      -0.042100
     17 CG1         64.2930    19.0860    47.5580 ca         1 H37      -0.085300
     18 CD11        64.3090    17.8600    46.8630 ca         1 H37      -0.107500
     19 CD21        65.4910    19.8120    47.7020 ca         1 H37      -0.107500
     20 CE11        65.5070    17.3690    46.3150 ca         1 H37      -0.107500
     21 CE21        66.6890    19.3220    47.1530 ca         1 H37      -0.107500
     22 CZ1         66.6970    18.1020    46.4560 ca         1 H37      -0.105000
     23 N2          61.3790    21.4150    50.1290 ns         1 H37      -0.496900
     24 CA2         60.1940    22.1710    50.6070 c3         1 H37       0.012700
     25 C2          59.7280    23.1910    49.5290 c          1 H37       0.559100
     26 O2          58.7270    22.9860    48.8490 o          1 H37      -0.489100
     27 CB2         60.4460    22.8160    51.9970 c3         1 H37      -0.076400
     28 CG2         60.6760    21.7900    53.1330 c3         1 H37      -0.116400
     29 CD          60.8600    22.4550    54.5150 c3         1 H37       0.229800
     30 NE          61.1030    21.4450    55.5560 nu         1 H37      -0.903400
     31 CZ2         60.1780    20.6640    56.0860 c2         1 H37       0.801100
     32 NH2         60.8190    19.9100    56.9370 nv         1 H37      -1.072200
     33 NH1         58.9580    20.9170    56.0810 n2         1 H37      -0.897100
     34 C3          60.5740    24.4610    49.3400 c3         1 H37       0.023600
     35 Cl1         59.8870    25.9200    50.2010 cl         1 H37      -0.268000
     36 HN          64.6610    14.5380    52.3110 hn         1 H37       0.408000
     37 HNA         65.6410    15.8140    52.3270 hn         1 H37       0.408000
     38 HA          63.0720    15.7340    50.8900 h1         1 H37       0.072700
     39 HB          64.3910    14.1560    49.8010 hc         1 H37       0.052200
     40 HBA         64.5330    15.5880    48.8190 hc         1 H37       0.052200
     41 HD1         66.3460    13.0800    50.7520 ha         1 H37       0.111000
     42 HD2         66.6960    17.0280    49.0250 ha         1 H37       0.111000
     43 HE1         68.8210    12.9240    50.8840 ha         1 H37       0.112000
     44 HE2         69.1690    16.8650    49.1550 ha         1 H37       0.112000
     45 HZ          70.2400    14.8140    50.0880 ha         1 H37       0.113000
     46 HN1         62.2690    17.4380    49.9450 hn         1 H37       0.323500
     47 HA1         63.6560    20.0950    50.1410 h1         1 H37       0.075700
     48 HB1         62.1340    19.1300    47.6640 hc         1 H37       0.065200
     49 HB1A        62.8930    20.6920    47.8610 hc         1 H37       0.065200
     50 HD11        63.3920    17.2870    46.7440 ha         1 H37       0.111000
     51 HD21        65.4940    20.7600    48.2360 ha         1 H37       0.111000
     52 HE11        65.5120    16.4220    45.7800 ha         1 H37       0.116000
     53 HE21        67.6110    19.8890    47.2670 ha         1 H37       0.116000
     54 HZ1         67.6240    17.7220    46.0330 ha         1 H37       0.117000
     55 HN2         62.1820    21.9300    49.7820 hn         1 H37       0.322500
     56 HA2         59.3520    21.4740    50.7150 h1         1 H37       0.108700
     57 HB2         61.3110    23.4890    51.9450 hc         1 H37       0.057200
     58 HB2A        59.5780    23.4360    52.2590 hc         1 H37       0.057200
     59 HG2         59.8240    21.1010    53.1730 hc         1 H37       0.059200
     60 HG2A        61.5660    21.1900    52.9100 hc         1 H37       0.059200
     61 HD          59.9750    23.0600    54.7580 h1         1 H37       0.056700
     62 HDA         61.7190    23.1390    54.4610 h1         1 H37       0.056700
     63 HNE         61.8550    21.6270    56.2070 hn         1 H37       0.467000
     64 HNH2        60.2370    19.1860    57.3340 hn         1 H37       0.452000
     65 HNHA        61.6780    19.5600    56.5380 hn         1 H37       0.452000
     66 HNH1        58.5070    20.2800    56.7450 hn         1 H37       0.378400
     67 H3          61.5900    24.2890    49.7150 h1         1 H37       0.088700
     68 H3A         60.6240    24.6910    48.2690 h1         1 H37       0.088700
@<TRIPOS>BOND
     1     1     2 1   
     2     1    36 1   
     3     1    37 1   
     4     2     3 1   
     5     2     5 1   
     6     2    38 1   
     7     3     4 2   
     8     3    12 1   
     9     5     6 1   
    10     5    39 1   
    11     5    40 1   
    12     6     7 ar  
    13     6     8 ar  
    14     7     9 ar  
    15     7    41 1   
    16     8    10 ar  
    17     8    42 1   
    18     9    11 ar  
    19     9    43 1   
    20    10    11 ar  
    21    10    44 1   
    22    11    45 1   
    23    12    13 1   
    24    12    46 1   
    25    13    14 1   
    26    13    16 1   
    27    13    47 1   
    28    14    15 2   
    29    14    23 1   
    30    16    17 1   
    31    16    48 1   
    32    16    49 1   
    33    17    18 ar  
    34    17    19 ar  
    35    18    20 ar  
    36    18    50 1   
    37    19    21 ar  
    38    19    51 1   
    39    20    22 ar  
    40    20    52 1   
    41    21    22 ar  
    42    21    53 1   
    43    22    54 1   
    44    23    24 1   
    45    23    55 1   
    46    24    25 1   
    47    24    27 1   
    48    24    56 1   
    49    25    26 2   
    50    25    34 1   
    51    27    28 1   
    52    27    57 1   
    53    27    58 1   
    54    28    29 1   
    55    28    59 1   
    56    28    60 1   
    57    29    30 1   
    58    29    61 1   
    59    29    62 1   
    60    30    31 1   
    61    30    63 1   
    62    31    32 1   
    63    31    33 2   
    64    32    64 1   
    65    32    65 1   
    66    33    66 1   
    67    34    35 1   
    68    34    67 1   
    69    34    68 1   
@<TRIPOS>SUBSTRUCTURE
     1 H37         1 TEMP              0 ****  ****    0 ROOT
