@<TRIPOS>MOLECULE
H38
   46    49     1     0     0
SMALL
bcc


@<TRIPOS>ATOM
      1 N26         -5.4490    -2.3150    -0.3230 n2         1 H38      -0.813600
      2 C26         -5.2870    -1.0970     0.0140 ce         1 H38       0.710300
      3 C25         -6.3760    -0.2300     0.5070 cc         1 H38      -0.172500
      4 S21         -6.1230     0.9640     1.7260 ss         1 H38      -0.062800
      5 C22         -7.7720     1.4150     1.7070 cc         1 H38      -0.108600
      6 C23         -8.4870     0.6800     0.8100 cd         1 H38      -0.156000
      7 C24         -7.6870    -0.2660     0.1230 cd         1 H38      -0.104500
      8 N27         -4.0730    -0.4640    -0.0530 nu         1 H38      -0.748600
      9 C31         -2.8160    -0.9830    -0.3460 ca         1 H38       0.161600
     10 C36         -1.7760    -0.0570    -0.4810 ca         1 H38      -0.170000
     11 C32         -2.5300    -2.3430    -0.4770 ca         1 H38      -0.161500
     12 C33         -1.2240    -2.7410    -0.7300 ca         1 H38      -0.101500
     13 C34         -0.1980    -1.8230    -0.8650 ca         1 H38      -0.145000
     14 C35         -0.4720    -0.4590    -0.7410 cp         1 H38      -0.007000
     15 C15          0.6030     0.5430    -0.8920 cp         1 H38      -0.007000
     16 C14          0.3600     1.7680    -1.5140 ca         1 H38      -0.145000
     17 C13          1.3830     2.6950    -1.6480 ca         1 H38      -0.101500
     18 C12          2.6600     2.4110    -1.1910 ca         1 H38      -0.161500
     19 C16          1.8810     0.2730    -0.4070 ca         1 H38      -0.170000
     20 C11          2.9170     1.1910    -0.5690 ca         1 H38       0.161600
     21 N07          4.1970     0.9310    -0.0690 nu         1 H38      -0.748600
     22 C06          4.8840    -0.2590    -0.2270 ce         1 H38       0.710300
     23 N06          4.5360    -1.2790    -0.9040 n2         1 H38      -0.813600
     24 C05          6.1570    -0.3060     0.5060 cc         1 H38      -0.172500
     25 S01          6.4370     0.6390     1.9210 ss         1 H38      -0.062800
     26 C02          8.0110    -0.0010     2.1070 cc         1 H38      -0.108600
     27 C03          8.3060    -0.9070     1.1320 cd         1 H38      -0.156000
     28 C04          7.2420    -1.0850     0.2150 cd         1 H38      -0.104500
     29 H1          -6.4010    -2.6110    -0.1380 hn         1 H38       0.393900
     30 H2          -8.1290     2.1940     2.3640 h4         1 H38       0.171000
     31 H3          -9.5460     0.8120     0.6410 ha         1 H38       0.157000
     32 H4          -8.0650    -0.9330    -0.6410 ha         1 H38       0.164500
     33 H5          -4.1000     0.5430    -0.0010 hn         1 H38       0.435300
     34 H6          -1.9940     0.9980    -0.3550 ha         1 H38       0.137500
     35 H7          -3.3150    -3.0760    -0.3940 ha         1 H38       0.151500
     36 H8          -1.0130    -3.7970    -0.8370 ha         1 H38       0.132500
     37 H9           0.8040    -2.1620    -1.0950 ha         1 H38       0.136000
     38 H10         -0.6210     1.9920    -1.9130 ha         1 H38       0.136000
     39 H11          1.1890     3.6420    -2.1340 ha         1 H38       0.132500
     40 H12          3.4570     3.1320    -1.3200 ha         1 H38       0.151500
     41 H13          2.0590    -0.6470     0.1370 ha         1 H38       0.137500
     42 H14          4.7700     1.7500     0.0780 hn         1 H38       0.435300
     43 H15          3.6820    -1.1190    -1.4300 hn         1 H38       0.393900
     44 H16          8.6330     0.3200     2.9280 h4         1 H38       0.171000
     45 H17          9.2520    -1.4270     1.0690 ha         1 H38       0.157000
     46 H18          7.2730    -1.7510    -0.6350 ha         1 H38       0.164500
@<TRIPOS>BOND
     1     1     2 2   
     2     1    29 1   
     3     2     3 1   
     4     2     8 1   
     5     3     4 1   
     6     3     7 2   
     7     4     5 1   
     8     5     6 2   
     9     5    30 1   
    10     6     7 1   
    11     6    31 1   
    12     7    32 1   
    13     8     9 1   
    14     8    33 1   
    15     9    10 ar  
    16     9    11 ar  
    17    10    14 ar  
    18    10    34 1   
    19    11    12 ar  
    20    11    35 1   
    21    12    13 ar  
    22    12    36 1   
    23    13    14 ar  
    24    13    37 1   
    25    14    15 1   
    26    15    16 ar  
    27    15    19 ar  
    28    16    17 ar  
    29    16    38 1   
    30    17    18 ar  
    31    17    39 1   
    32    18    20 ar  
    33    18    40 1   
    34    19    20 ar  
    35    19    41 1   
    36    20    21 1   
    37    21    22 1   
    38    21    42 1   
    39    22    23 2   
    40    22    24 1   
    41    23    43 1   
    42    24    25 1   
    43    24    28 2   
    44    25    26 1   
    45    26    27 2   
    46    26    44 1   
    47    27    28 1   
    48    27    45 1   
    49    28    46 1   
@<TRIPOS>SUBSTRUCTURE
     1 H38         1 TEMP              0 ****  ****    0 ROOT
