@<TRIPOS>MOLECULE
H38
   46    49     1     0     0
SMALL
No Charge or Current Charge


@<TRIPOS>ATOM
      1 N26         -5.6330    -1.9100    -0.9470 n2         1 H38      -0.813600
      2 C26         -5.3470    -0.9280    -0.1910 ce         1 H38       0.710300
      3 C25         -6.4020    -0.2600     0.5610 cc         1 H38      -0.317400
      4 S21         -6.0330     1.0350     1.7080 ss         1 H38       0.227000
      5 C22         -7.7300     1.2200     2.1270 cc         1 H38      -0.235500
      6 C23         -8.5040     0.3330     1.4280 cd         1 H38      -0.138000
      7 C24         -7.7610    -0.5010     0.5500 cd         1 H38      -0.086500
      8 N27         -4.0730    -0.4090    -0.1200 nu         1 H38      -0.942200
      9 C31         -2.8170    -0.9050    -0.4840 ca         1 H38       0.300000
     10 C36         -1.7600     0.0100    -0.6270 ca         1 H38      -0.152000
     11 C32         -2.5630    -2.2770    -0.6680 ca         1 H38      -0.143500
     12 C33         -1.2760    -2.7210    -1.0110 ca         1 H38      -0.083500
     13 C34         -0.2320    -1.7960    -1.1640 ca         1 H38      -0.127000
     14 C35         -0.4510    -0.4100    -0.9730 cp         1 H38      -0.007000
     15 C15          0.6650     0.5780    -1.1300 cp         1 H38      -0.007000
     16 C14          0.4290     1.8700    -1.6620 ca         1 H38      -0.127000
     17 C13          1.4720     2.8000    -1.7930 ca         1 H38      -0.083500
     18 C12          2.7740     2.4530    -1.4000 ca         1 H38      -0.143500
     19 C16          1.9900     0.2540    -0.7420 ca         1 H38      -0.152000
     20 C11          3.0440     1.1760    -0.8850 ca         1 H38       0.300000
     21 N07          4.3510     0.8760    -0.4960 nu         1 H38      -0.942200
     22 C06          5.0130    -0.3080    -0.2850 ce         1 H38       0.710300
     23 N06          4.6590    -1.3560    -0.9070 n2         1 H38      -0.813600
     24 C05          6.1720    -0.3150     0.5940 cc         1 H38      -0.317400
     25 S01          6.6340     1.1100     1.5300 ss         1 H38       0.227000
     26 C02          7.9970     0.2590     2.2460 cc         1 H38      -0.235500
     27 C03          8.0620    -1.0300     1.7870 cd         1 H38      -0.138000
     28 C04          7.0350    -1.3550     0.8620 cd         1 H38      -0.086500
     29 H1          -6.6330    -2.1000    -0.8310 hn         1 H38       0.393900
     30 H2          -8.0240     1.9640     2.8560 h4         1 H38       0.153000
     31 H3          -9.5830     0.2720     1.5350 ha         1 H38       0.139000
     32 H4          -8.2390    -1.2540    -0.0700 ha         1 H38       0.146500
     33 H5          -4.0650     0.5410     0.2270 hn         1 H38       0.490500
     34 H6          -1.9520     1.0660    -0.4590 ha         1 H38       0.119500
     35 H7          -3.3520    -3.0090    -0.5330 ha         1 H38       0.133500
     36 H8          -1.0880    -3.7830    -1.1550 ha         1 H38       0.114500
     37 H9           0.7550    -2.1590    -1.4420 ha         1 H38       0.118000
     38 H10         -0.5700     2.1520    -1.9830 ha         1 H38       0.118000
     39 H11          1.2720     3.7880    -2.2020 ha         1 H38       0.114500
     40 H12          3.5760     3.1780    -1.5070 ha         1 H38       0.133500
     41 H13          2.1810    -0.7140    -0.2920 ha         1 H38       0.119500
     42 H14          4.9380     1.6840    -0.3230 hn         1 H38       0.490500
     43 H15          3.9000    -1.0620    -1.5290 hn         1 H38       0.393900
     44 H16          8.6400     0.7720     2.9490 h4         1 H38       0.153000
     45 H17          8.8250    -1.7370     2.1020 ha         1 H38       0.139000
     46 H18          6.9420    -2.3370     0.4060 ha         1 H38       0.146500
@<TRIPOS>BOND
     1     1     2 2   
     2     1    29 1   
     3     2     3 1   
     4     2     8 1   
     5     3     4 1   
     6     3     7 2   
     7     4     5 1   
     8     5     6 2   
     9     5    30 1   
    10     6     7 1   
    11     6    31 1   
    12     7    32 1   
    13     8     9 1   
    14     8    33 1   
    15     9    10 ar  
    16     9    11 ar  
    17    10    14 ar  
    18    10    34 1   
    19    11    12 ar  
    20    11    35 1   
    21    12    13 ar  
    22    12    36 1   
    23    13    14 ar  
    24    13    37 1   
    25    14    15 1   
    26    15    16 ar  
    27    15    19 ar  
    28    16    17 ar  
    29    16    38 1   
    30    17    18 ar  
    31    17    39 1   
    32    18    20 ar  
    33    18    40 1   
    34    19    20 ar  
    35    19    41 1   
    36    20    21 1   
    37    21    22 1   
    38    21    42 1   
    39    22    23 2   
    40    22    24 1   
    41    23    43 1   
    42    24    25 1   
    43    24    28 2   
    44    25    26 1   
    45    26    27 2   
    46    26    44 1   
    47    27    28 1   
    48    27    45 1   
    49    28    46 1   
@<TRIPOS>SUBSTRUCTURE
     1 H38         1 TEMP              0 ****  ****    0 ROOT
