@<TRIPOS>MOLECULE
H39
   53    55     1     0     0
SMALL
No Charge or Current Charge


@<TRIPOS>ATOM
      1 C1          32.0990   -31.6590     0.7700 ca         1 H39      -0.132000
      2 C2          31.5290   -32.4740     1.7690 ca         1 H39      -0.125000
      3 C3          35.9440   -32.6970    -4.8680 cc         1 H39      -0.145000
      4 C4          35.9310   -32.2090    -6.1440 cd         1 H39      -0.223000
      5 C5          38.0890   -32.2720    -5.3800 cd         1 H39      -0.200000
      6 C6          32.6310   -33.6400    -0.5820 ca         1 H39      -0.090600
      7 C7          32.6590   -32.2260    -0.4040 ca         1 H39      -0.064300
      8 C8          37.2680   -32.7390    -4.3900 cc         1 H39      -0.142300
      9 C9          31.5240   -33.8550     1.5640 ca         1 H39       0.029100
     10 C10         32.0510   -34.4160     0.4340 ca         1 H39       0.065100
     11 C11         33.1950   -34.3200    -1.7970 c          1 H39       0.726600
     12 C12         37.3520   -32.1710    -1.9200 c          1 H39       0.596100
     13 C13         31.2010   -36.0370     1.6810 c5         1 H39       0.366600
     14 C14         33.5650   -27.5090    -1.6090 c3         1 H39      -0.084100
     15 C15         34.8960   -27.6880    -3.7700 c3         1 H39      -0.084100
     16 C16         37.6410   -33.2150    -3.0070 c3         1 H39      -0.079100
     17 C17         33.2630   -31.2860    -1.4530 c3         1 H39      -0.027100
     18 C18         35.1020   -29.5500    -2.0390 c3         1 H39      -0.074400
     19 C19         35.5790   -31.3900    -0.3030 c3         1 H39       0.106000
     20 C20         34.1620   -28.4750    -2.6600 c3         1 H39      -0.062700
     21 C21         34.4930   -30.4770    -0.9400 c3         1 H39      -0.072700
     22 N22         37.2660   -31.9430    -6.4660 na         1 H39      -0.135000
     23 N23         36.1610   -32.3390    -1.2550 ns         1 H39      -0.501900
     24 O24         32.4190   -34.6760    -2.6720 o          1 H39      -0.709500
     25 O25         34.4100   -34.4400    -1.8730 o          1 H39      -0.709500
     26 O26         38.1110   -31.2400    -1.6790 o          1 H39      -0.676100
     27 O27         31.0320   -34.7800     2.4260 os         1 H39      -0.374100
     28 O28         31.9590   -35.7730     0.4490 os         1 H39      -0.327100
     29 H1          32.1050   -30.5810     0.9090 ha         1 H39       0.097000
     30 H2          31.1060   -32.0420     2.6730 ha         1 H39       0.110000
     31 H5          39.1660   -32.1460    -5.4000 h4         1 H39       0.137000
     32 H13         30.2130   -36.4290     1.4130 h2         1 H39       0.048700
     33 H13A        31.7410   -36.7650     2.2990 h2         1 H39       0.048700
     34 H14         32.9120   -28.0400    -0.9080 hc         1 H39       0.025533
     35 H14A        34.3600   -27.0150    -1.0360 hc         1 H39       0.025533
     36 H14B        32.9620   -26.7330    -2.0950 hc         1 H39       0.025533
     37 H15         35.2710   -28.3680    -4.5450 hc         1 H39       0.025533
     38 H15A        34.2180   -26.9720    -4.2510 hc         1 H39       0.025533
     39 H15B        35.7470   -27.1320    -3.3590 hc         1 H39       0.025533
     40 H16         37.0670   -34.1240    -2.7990 hc         1 H39       0.068200
     41 H16A        38.7120   -33.4480    -2.9890 hc         1 H39       0.068200
     42 H17         33.5460   -31.8230    -2.3650 hc         1 H39       0.056200
     43 H17A        32.4800   -30.5850    -1.7630 hc         1 H39       0.056200
     44 H18         35.4840   -30.1770    -2.8540 hc         1 H39       0.052200
     45 H18A        35.9760   -29.0390    -1.6150 hc         1 H39       0.052200
     46 H19         35.1410   -31.9600     0.5260 h1         1 H39       0.049700
     47 H19A        36.3740   -30.7650     0.1240 h1         1 H39       0.049700
     48 H20         33.3260   -28.9890    -3.1490 hc         1 H39       0.048700
     49 H21         34.1440   -29.8310    -0.1270 hc         1 H39       0.031700
     50 HN23        35.5990   -33.1460    -1.5300 hn         1 H39       0.386500
     51 HN22        37.5920   -31.5680    -7.3530 hn         1 H39       0.327000
     52 H3          35.0720   -33.0100    -4.2970 ha         1 H39       0.174000
     53 H4          35.1080   -32.0330    -6.8280 h4         1 H39       0.136000
@<TRIPOS>BOND
     1     1     2 ar  
     2     1     7 ar  
     3     1    29 1   
     4     2     9 ar  
     5     2    30 1   
     6     3     4 2   
     7     3     8 1   
     8     3    52 1   
     9     4    22 1   
    10     4    53 1   
    11     5     8 2   
    12     5    22 1   
    13     5    31 1   
    14     6     7 ar  
    15     6    10 ar  
    16     6    11 1   
    17     7    17 1   
    18     8    16 1   
    19     9    10 ar  
    20     9    27 1   
    21    10    28 1   
    22    11    24 1   
    23    11    25 1   
    24    12    16 1   
    25    12    23 1   
    26    12    26 2   
    27    13    27 1   
    28    13    28 1   
    29    13    32 1   
    30    13    33 1   
    31    14    20 1   
    32    14    34 1   
    33    14    35 1   
    34    14    36 1   
    35    15    20 1   
    36    15    37 1   
    37    15    38 1   
    38    15    39 1   
    39    16    40 1   
    40    16    41 1   
    41    17    21 1   
    42    17    42 1   
    43    17    43 1   
    44    18    20 1   
    45    18    21 1   
    46    18    44 1   
    47    18    45 1   
    48    19    21 1   
    49    19    23 1   
    50    19    46 1   
    51    19    47 1   
    52    20    48 1   
    53    21    49 1   
    54    22    51 1   
    55    23    50 1   
@<TRIPOS>SUBSTRUCTURE
     1 H39         1 TEMP              0 ****  ****    0 ROOT
