@<TRIPOS>MOLECULE
H39
   53    55     1     0     0
SMALL
abcg2


@<TRIPOS>ATOM
      1 C1          32.2070   -31.6690     0.7120 ca         1 H39      -0.132000
      2 C2          31.5740   -32.4080     1.7190 ca         1 H39      -0.125000
      3 C3          35.7300   -32.6600    -4.6630 cc         1 H39      -0.145000
      4 C4          35.5960   -31.8920    -5.7980 cd         1 H39      -0.223000
      5 C5          37.7350   -31.7480    -5.1410 cd         1 H39      -0.200000
      6 C6          32.7040   -33.6620    -0.5840 ca         1 H39      -0.090600
      7 C7          32.7750   -32.2610    -0.4170 ca         1 H39      -0.064300
      8 C8          37.0910   -32.5720    -4.2420 cc         1 H39      -0.142300
      9 C9          31.5230   -33.7710     1.5360 ca         1 H39       0.029100
     10 C10         32.0640   -34.3700     0.4130 ca         1 H39       0.065100
     11 C11         33.2670   -34.3950    -1.7950 c          1 H39       0.726600
     12 C12         37.4370   -32.2070    -1.8300 c          1 H39       0.596100
     13 C13         31.0030   -35.9430     1.5970 c5         1 H39       0.366600
     14 C14         33.6090   -27.7320    -1.8740 c3         1 H39      -0.084100
     15 C15         35.0260   -28.0290    -3.9370 c3         1 H39      -0.084100
     16 C16         37.6790   -33.1650    -2.9920 c3         1 H39      -0.079100
     17 C17         33.4280   -31.3850    -1.4620 c3         1 H39      -0.027100
     18 C18         35.2200   -29.6890    -2.0720 c3         1 H39      -0.074400
     19 C19         35.6950   -31.4070    -0.2800 c3         1 H39       0.106000
     20 C20         34.2700   -28.7410    -2.8140 c3         1 H39      -0.062700
     21 C21         34.6130   -30.5430    -0.9500 c3         1 H39      -0.072700
     22 N22         36.8190   -31.3430    -6.0770 na         1 H39      -0.135000
     23 N23         36.2760   -32.3860    -1.1830 ns         1 H39      -0.501900
     24 O24         32.4380   -34.8290    -2.6230 o          1 H39      -0.709500
     25 O25         34.5200   -34.5180    -1.8550 o          1 H39      -0.709500
     26 O26         38.2420   -31.3040    -1.5740 o          1 H39      -0.676100
     27 O27         31.0060   -34.7350     2.3740 os         1 H39      -0.374100
     28 O28         31.9040   -35.7370     0.5000 os         1 H39      -0.327100
     29 H1          32.2520   -30.5920     0.8150 ha         1 H39       0.097000
     30 H2          31.1480   -31.9330     2.5920 ha         1 H39       0.110000
     31 H5          38.7600   -31.4200    -5.1820 h4         1 H39       0.137000
     32 H13         29.9950   -36.1220     1.2100 h2         1 H39       0.048700
     33 H13A        31.3570   -36.7700     2.2100 h2         1 H39       0.048700
     34 H14         32.9980   -28.2240    -1.1160 hc         1 H39       0.025533
     35 H14A        34.3680   -27.1370    -1.3570 hc         1 H39       0.025533
     36 H14B        32.9650   -27.0460    -2.4280 hc         1 H39       0.025533
     37 H15         35.4750   -28.7500    -4.6250 hc         1 H39       0.025533
     38 H15A        34.3610   -27.3790    -4.5110 hc         1 H39       0.025533
     39 H15B        35.8300   -27.4090    -3.5290 hc         1 H39       0.025533
     40 H16         37.2240   -34.1350    -2.7840 hc         1 H39       0.068200
     41 H16A        38.7550   -33.3000    -3.0970 hc         1 H39       0.068200
     42 H17         33.7640   -31.9930    -2.3020 hc         1 H39       0.056200
     43 H17A        32.6730   -30.7060    -1.8640 hc         1 H39       0.056200
     44 H18         35.6760   -30.3560    -2.8090 hc         1 H39       0.052200
     45 H18A        36.0360   -29.0930    -1.6480 hc         1 H39       0.052200
     46 H19         35.2650   -31.9360     0.5710 h1         1 H39       0.049700
     47 H19A        36.4950   -30.7680     0.0900 h1         1 H39       0.049700
     48 H20         33.4800   -29.3380    -3.2820 hc         1 H39       0.048700
     49 H21         34.2410   -29.8780    -0.1650 hc         1 H39       0.031700
     50 HN23        35.6750   -33.1690    -1.4560 hn         1 H39       0.386500
     51 HN22        37.0200   -30.7470    -6.8630 hn         1 H39       0.327000
     52 H3          34.9500   -33.2170    -4.1700 ha         1 H39       0.174000
     53 H4          34.7410   -31.6950    -6.4240 h4         1 H39       0.136000
@<TRIPOS>BOND
     1     1     2 ar  
     2     1     7 ar  
     3     1    29 1   
     4     2     9 ar  
     5     2    30 1   
     6     3     4 2   
     7     3     8 1   
     8     3    52 1   
     9     4    22 1   
    10     4    53 1   
    11     5     8 2   
    12     5    22 1   
    13     5    31 1   
    14     6     7 ar  
    15     6    10 ar  
    16     6    11 1   
    17     7    17 1   
    18     8    16 1   
    19     9    10 ar  
    20     9    27 1   
    21    10    28 1   
    22    11    24 1   
    23    11    25 1   
    24    12    16 1   
    25    12    23 1   
    26    12    26 2   
    27    13    27 1   
    28    13    28 1   
    29    13    32 1   
    30    13    33 1   
    31    14    20 1   
    32    14    34 1   
    33    14    35 1   
    34    14    36 1   
    35    15    20 1   
    36    15    37 1   
    37    15    38 1   
    38    15    39 1   
    39    16    40 1   
    40    16    41 1   
    41    17    21 1   
    42    17    42 1   
    43    17    43 1   
    44    18    20 1   
    45    18    21 1   
    46    18    44 1   
    47    18    45 1   
    48    19    21 1   
    49    19    23 1   
    50    19    46 1   
    51    19    47 1   
    52    20    48 1   
    53    21    49 1   
    54    22    51 1   
    55    23    50 1   
@<TRIPOS>SUBSTRUCTURE
     1 H39         1 TEMP              0 ****  ****    0 ROOT
