@<TRIPOS>MOLECULE
H3A
   33    34     1     0     0
SMALL
No Charge or Current Charge


@<TRIPOS>ATOM
      1 N1          -0.8080     0.7110     0.1160 ns         1 H3A      -0.153000
      2 C4           4.4010     0.8530    -1.7870 ca         1 H3A      -0.071000
      3 C5           3.1830     1.5450    -1.6830 ca         1 H3A      -0.125000
      4 C6           2.4060     1.4450    -0.5140 ca         1 H3A      -0.039300
      5 C7           1.0810     2.1910    -0.4030 c3         1 H3A      -0.115100
      6 C8          -0.0750     1.3130    -0.8990 c          1 H3A       0.608100
      7 C10         -2.5760    -0.5900    -1.0820 ca         1 H3A      -0.134000
      8 C13         -3.5140    -1.4900     1.4050 ca         1 H3A       0.150000
      9 C15          2.8620     0.6440     0.5500 ca         1 H3A      -0.134000
     10 C1           5.6950    -1.5720     1.5360 c3         1 H3A       0.148900
     11 C2           4.0790    -0.0520     0.4550 ca         1 H3A       0.142100
     12 C3           4.8520     0.0550    -0.7220 ca         1 H3A      -0.190000
     13 C9          -1.9290    -0.1640     0.1000 ca         1 H3A      -0.005000
     14 C11         -3.6810    -1.4580    -1.0170 ca         1 H3A      -0.076000
     15 C12         -4.1500    -1.9090     0.2280 ca         1 H3A      -0.132000
     16 C14         -2.4110    -0.6230     1.3410 ca         1 H3A      -0.170000
     17 O2          -0.2960     1.1640    -2.0960 o          1 H3A      -0.559100
     18 H1          -0.4820     0.9350     1.0470 hn         1 H3A       0.150000
     19 H2           4.9950     0.9350    -2.6950 ha         1 H3A       0.113000
     20 H3           2.8420     2.1570    -2.5150 ha         1 H3A       0.115000
     21 H4           0.9140     2.4670     0.6450 hc         1 H3A       0.066700
     22 H5           1.1180     3.1000    -1.0140 hc         1 H3A       0.066700
     23 H6          -2.2430    -0.2610    -2.0620 ha         1 H3A       0.152000
     24 H7           2.2720     0.5560     1.4590 ha         1 H3A       0.124000
     25 H8           6.5600    -0.9070     1.4150 h1         1 H3A       0.040700
     26 H9           5.8100    -2.1090     2.4850 h1         1 H3A       0.040700
     27 H10          5.7020    -2.3110     0.7240 h1         1 H3A       0.040700
     28 H11          5.7970    -0.4700    -0.8280 ha         1 H3A       0.117000
     29 H12         -4.1740    -1.7820    -1.9320 ha         1 H3A       0.120000
     30 H13         -5.0040    -2.5800     0.2800 ha         1 H3A       0.132000
     31 H14         -1.9300    -0.3080     2.2640 ha         1 H3A       0.123000
     32 Cl1         -4.0980    -2.0500     2.9650 cl         1 H3A      -0.206000
     33 O1           4.4680    -0.8210     1.5330 os         1 H3A      -0.343100
@<TRIPOS>BOND
     1     1     6 1   
     2     1    13 1   
     3     1    18 1   
     4     2     3 ar  
     5     2    12 ar  
     6     2    19 1   
     7     3     4 ar  
     8     3    20 1   
     9     4     5 1   
    10     4     9 ar  
    11     5     6 1   
    12     5    21 1   
    13     5    22 1   
    14     6    17 2   
    15     7    13 ar  
    16     7    14 ar  
    17     7    23 1   
    18     8    15 ar  
    19     8    16 ar  
    20     8    32 1   
    21     9    11 ar  
    22     9    24 1   
    23    10    25 1   
    24    10    26 1   
    25    10    27 1   
    26    10    33 1   
    27    11    12 ar  
    28    11    33 1   
    29    12    28 1   
    30    13    16 ar  
    31    14    15 ar  
    32    14    29 1   
    33    15    30 1   
    34    16    31 1   
@<TRIPOS>SUBSTRUCTURE
     1 H3A         1 TEMP              0 ****  ****    0 ROOT
