@<TRIPOS>MOLECULE
H3A
   33    34     1     0     0
SMALL
abcg2


@<TRIPOS>ATOM
      1 N1          -1.0890     0.4850     0.4860 ns         1 H3A      -0.153000
      2 C4           4.2820     1.2110    -1.7110 ca         1 H3A      -0.071000
      3 C5           3.0070     1.5430    -1.2880 ca         1 H3A      -0.125000
      4 C6           2.5270     1.0410    -0.0790 ca         1 H3A      -0.039300
      5 C7           1.1410     1.3720     0.3870 c3         1 H3A      -0.115100
      6 C8           0.1010     0.4120    -0.1680 c          1 H3A       0.608100
      7 C10         -2.4530    -1.1510    -0.7650 ca         1 H3A      -0.134000
      8 C13         -4.5910    -0.4660     0.8510 ca         1 H3A       0.150000
      9 C15          3.3360     0.2140     0.6840 ca         1 H3A      -0.134000
     10 C1           6.6340    -1.3000     0.6940 c3         1 H3A       0.148900
     11 C2           4.6230    -0.1210     0.2570 ca         1 H3A       0.142100
     12 C3           5.1000     0.3810    -0.9510 ca         1 H3A      -0.190000
     13 C9          -2.2850    -0.1840     0.2270 ca         1 H3A      -0.005000
     14 C11         -3.6920    -1.7550    -0.9260 ca         1 H3A      -0.076000
     15 C12         -4.7770    -1.4280    -0.1280 ca         1 H3A      -0.132000
     16 C14         -3.3720     0.1570     1.0390 ca         1 H3A      -0.170000
     17 O2           0.3180    -0.3200    -1.1120 o          1 H3A      -0.559100
     18 H1          -1.1270     1.1340     1.2580 hn         1 H3A       0.150000
     19 H2           4.6580     1.6020    -2.6480 ha         1 H3A       0.113000
     20 H3           2.3860     2.1950    -1.8880 ha         1 H3A       0.115000
     21 H4           1.0900     1.3810     1.4780 hc         1 H3A       0.066700
     22 H5           0.8600     2.3780     0.0610 hc         1 H3A       0.066700
     23 H6          -1.6370    -1.4370    -1.4070 ha         1 H3A       0.152000
     24 H7           2.9770    -0.1820     1.6280 ha         1 H3A       0.124000
     25 H8           7.2940    -0.4340     0.5960 h1         1 H3A       0.040700
     26 H9           7.0160    -1.9430     1.4830 h1         1 H3A       0.040700
     27 H10          6.6440    -1.8570    -0.2470 h1         1 H3A       0.040700
     28 H11          6.0920     0.1450    -1.3120 ha         1 H3A       0.117000
     29 H12         -3.8100    -2.5050    -1.6970 ha         1 H3A       0.120000
     30 H13         -5.7360    -1.9090    -0.2630 ha         1 H3A       0.132000
     31 H14         -3.2590     0.9070     1.8110 ha         1 H3A       0.123000
     32 CL1         -5.9190    -0.0230     1.8750 cl         1 H3A      -0.206000
     33 O1           5.3250    -0.9280     1.0750 os         1 H3A      -0.343100
@<TRIPOS>BOND
     1     1     6 1   
     2     1    13 1   
     3     1    18 1   
     4     2     3 ar  
     5     2    12 ar  
     6     2    19 1   
     7     3     4 ar  
     8     3    20 1   
     9     4     5 1   
    10     4     9 ar  
    11     5     6 1   
    12     5    21 1   
    13     5    22 1   
    14     6    17 2   
    15     7    13 ar  
    16     7    14 ar  
    17     7    23 1   
    18     8    15 ar  
    19     8    16 ar  
    20     8    32 1   
    21     9    11 ar  
    22     9    24 1   
    23    10    25 1   
    24    10    26 1   
    25    10    27 1   
    26    10    33 1   
    27    11    12 ar  
    28    11    33 1   
    29    12    28 1   
    30    13    16 ar  
    31    14    15 ar  
    32    14    29 1   
    33    15    30 1   
    34    16    31 1   
@<TRIPOS>SUBSTRUCTURE
     1 H3A         1 TEMP              0 ****  ****    0 ROOT
