@<TRIPOS>MOLECULE
H3B
   26    25     1     0     0
SMALL
No Charge or Current Charge


@<TRIPOS>ATOM
      1 C10         -2.9030     1.4560     1.0960 c3         1 H3B      -0.103100
      2 C06         -1.3560    -0.0160    -0.9720 c3         1 H3B      -0.055400
      3 C07         -0.0670    -0.0160    -0.1240 c3         1 H3B      -0.009400
      4 C08         -2.8980    -1.5070     1.0850 c3         1 H3B      -0.103100
      5 C09         -4.3160    -0.0200    -1.0410 c3         1 H3B      -0.103100
      6 C11          1.2060    -0.0110    -1.0020 c3         1 H3B      -0.355400
      7 O03          3.7890    -0.0070    -1.0910 o          1 H3B      -0.698867
      8 O04          2.6780     1.2230     0.7430 o          1 H3B      -0.698867
      9 O05          2.6820    -1.2520     0.7350 o          1 H3B      -0.698867
     10 S01          2.7490    -0.0120    -0.0520 s6         1 H3B       1.319600
     11 SI1         -2.8650    -0.0220     0.0440 s6         1 H3B      -0.229000
     12 H1          -2.5990     2.3220     0.4950 h1         1 H3B       0.046700
     13 H2          -3.9240     1.5930     1.4720 h1         1 H3B       0.046700
     14 H3          -2.2070     1.3110     1.9320 h1         1 H3B       0.046700
     15 H4          -1.3890     0.8790    -1.6070 h1         1 H3B       0.050700
     16 H5          -1.3860    -0.9060    -1.6130 h1         1 H3B       0.050700
     17 H6          -0.0650     0.8650     0.5300 hc         1 H3B       0.045200
     18 H7          -0.0620    -0.9020     0.5240 hc         1 H3B       0.045200
     19 H8          -3.9190    -1.6500     1.4610 h1         1 H3B       0.046700
     20 H9          -2.5920    -2.3680     0.4780 h1         1 H3B       0.046700
     21 H10         -2.2020    -1.3660     1.9220 h1         1 H3B       0.046700
     22 H11         -4.2880     0.8830    -1.6640 h1         1 H3B       0.046700
     23 H12         -4.2840    -0.9180    -1.6720 h1         1 H3B       0.046700
     24 H13         -5.2200    -0.0250    -0.4200 h1         1 H3B       0.046700
     25 H14          1.2340    -0.9020    -1.6380 h1         1 H3B       0.062700
     26 H15          1.2310     0.8840    -1.6320 h1         1 H3B       0.062700
@<TRIPOS>BOND
     1     1    11 1   
     2     1    12 1   
     3     1    13 1   
     4     1    14 1   
     5     2     3 1   
     6     2    11 1   
     7     2    15 1   
     8     2    16 1   
     9     3     6 1   
    10     3    17 1   
    11     3    18 1   
    12     4    11 1   
    13     4    19 1   
    14     4    20 1   
    15     4    21 1   
    16     5    11 1   
    17     5    22 1   
    18     5    23 1   
    19     5    24 1   
    20     6    10 1   
    21     6    25 1   
    22     6    26 1   
    23     7    10 1   
    24     8    10 1   
    25     9    10 1   
@<TRIPOS>SUBSTRUCTURE
     1 H3B         1 TEMP              0 ****  ****    0 ROOT
