@<TRIPOS>MOLECULE
H3B
   26    25     1     0     0
SMALL
bcc


@<TRIPOS>ATOM
      1 C10         -2.9370     1.5020     1.1560 c3         1 H3B       0.007700
      2 C06         -1.2920    -0.0300    -0.9670 c3         1 H3B       0.055400
      3 C07         -0.0100    -0.0220    -0.1330 c3         1 H3B      -0.009400
      4 C08         -2.9660    -1.5740     1.1250 c3         1 H3B       0.007700
      5 C09         -4.3550    -0.0010    -1.1360 c3         1 H3B       0.007700
      6 C11          1.2350    -0.0260    -1.0080 c3         1 H3B      -0.244600
      7 O03          3.8500     0.0090    -1.0770 o          1 H3B      -0.698867
      8 O04          2.7240     1.2640     0.7220 o          1 H3B      -0.698867
      9 O05          2.7620    -1.1980     0.7760 o          1 H3B      -0.698867
     10 S01          2.7690     0.0150    -0.0680 s6         1 H3B       1.208800
     11 SI1         -2.8880    -0.0260     0.0490 s6         1 H3B      -0.672200
     12 H1          -2.8730     2.4220     0.5720 h1         1 H3B       0.046700
     13 H2          -3.8660     1.5390     1.7280 h1         1 H3B       0.046700
     14 H3          -2.1120     1.5060     1.8710 h1         1 H3B       0.046700
     15 H4          -1.3030     0.8410    -1.6330 h1         1 H3B       0.050700
     16 H5          -1.3000    -0.9080    -1.6240 h1         1 H3B       0.050700
     17 H6           0.0120     0.8590     0.5130 hc         1 H3B       0.045200
     18 H7           0.0160    -0.8930     0.5280 hc         1 H3B       0.045200
     19 H8          -3.8980    -1.6080     1.6930 h1         1 H3B       0.046700
     20 H9          -2.9140    -2.4830     0.5230 h1         1 H3B       0.046700
     21 H10         -2.1450    -1.6060     1.8440 h1         1 H3B       0.046700
     22 H11         -4.3330     0.8860    -1.7720 h1         1 H3B       0.046700
     23 H12         -4.3490    -0.8760    -1.7890 h1         1 H3B       0.046700
     24 H13         -5.3060     0.0030    -0.5980 h1         1 H3B       0.046700
     25 H14          1.2640    -0.9200    -1.6350 h1         1 H3B       0.062700
     26 H15          1.2420     0.8420    -1.6710 h1         1 H3B       0.062700
@<TRIPOS>BOND
     1     1    11 1   
     2     1    12 1   
     3     1    13 1   
     4     1    14 1   
     5     2     3 1   
     6     2    11 1   
     7     2    15 1   
     8     2    16 1   
     9     3     6 1   
    10     3    17 1   
    11     3    18 1   
    12     4    11 1   
    13     4    19 1   
    14     4    20 1   
    15     4    21 1   
    16     5    11 1   
    17     5    22 1   
    18     5    23 1   
    19     5    24 1   
    20     6    10 1   
    21     6    25 1   
    22     6    26 1   
    23     7    10 1   
    24     8    10 1   
    25     9    10 1   
@<TRIPOS>SUBSTRUCTURE
     1 H3B         1 TEMP              0 ****  ****    0 ROOT
