@<TRIPOS>MOLECULE
H3C
   40    42     1     0     0
SMALL
bcc


@<TRIPOS>ATOM
      1 N5          20.6450    43.2220     0.9780 n1         1 H3C      -0.337800
      2 C18         20.7940    42.9180    -0.1220 cg         1 H3C       0.227800
      3 C15         20.9780    42.5290    -1.4810 ca         1 H3C      -0.117300
      4 C14         19.9710    41.8260    -2.1450 ca         1 H3C       0.445200
      5 N4          20.1000    41.4370    -3.3960 nb         1 H3C      -0.680000
      6 C16         22.1510    42.8340    -2.1640 ca         1 H3C      -0.062000
      7 C17         22.2750    42.4190    -3.4770 ca         1 H3C      -0.189300
      8 C13         21.2220    41.7200    -4.0490 ca         1 H3C       0.369800
      9 C12         21.3390    41.2420    -5.4720 c          1 H3C       0.579600
     10 O           22.3480    41.4620    -6.1180 o          1 H3C      -0.581100
     11 N3          20.2500    40.5820    -5.9040 ns         1 H3C      -0.448100
     12 C8          20.0070    40.0200    -7.1610 ca         1 H3C       0.054600
     13 C7          18.6990    39.6020    -7.4130 ca         1 H3C      -0.137000
     14 C9          20.9790    39.8490    -8.1430 ca         1 H3C      -0.121000
     15 C10         20.6230    39.2610    -9.3470 ca         1 H3C      -0.149000
     16 C11         19.3240    38.8560    -9.5640 ca         1 H3C       0.120900
     17 F           19.0360    38.2730   -10.7410 f          1 H3C      -0.145900
     18 C6          18.3210    39.0250    -8.6170 ca         1 H3C      -0.095300
     19 C2          16.8850    38.5390    -8.8540 c6         1 H3C       0.254700
     20 C1          16.8560    37.0150    -8.7000 c3         1 H3C      -0.067100
     21 C5          16.4210    38.9260   -10.2400 c2         1 H3C      -0.160200
     22 C4          16.0010    40.1510   -10.5230 c2         1 H3C      -0.051400
     23 S           15.9070    41.3880    -9.2840 ss         1 H3C      -0.289800
     24 C3          15.6140    40.2940    -7.9040 c2         1 H3C       0.679100
     25 N1          15.9940    39.0860    -7.8430 n2         1 H3C      -0.685900
     26 N2          14.9800    40.9170    -6.8810 nv         1 H3C      -0.906800
     27 H1          19.0450    41.5800    -1.6400 h4         1 H3C       0.037100
     28 H2          22.9480    43.3790    -1.6770 ha         1 H3C       0.157000
     29 H3          23.1710    42.6330    -4.0420 ha         1 H3C       0.176000
     30 H4          19.4950    40.5190    -5.2310 hn         1 H3C       0.351500
     31 H5          17.9520    39.7370    -6.6410 ha         1 H3C       0.150000
     32 H6          22.0000    40.1560    -7.9900 ha         1 H3C       0.168000
     33 H7          21.3670    39.1130   -10.1190 ha         1 H3C       0.152000
     34 H8          17.1780    36.7300    -7.6990 hc         1 H3C       0.046700
     35 H9          15.8410    36.6450    -8.8520 hc         1 H3C       0.046700
     36 H10         17.5070    36.5260    -9.4240 hc         1 H3C       0.046700
     37 H11         16.3850    38.1640   -11.0100 ha         1 H3C       0.153000
     38 H13         15.6560    40.4510   -11.5030 h4         1 H3C       0.161000
     39 H15         14.3130    41.6420    -7.0930 hn         1 H3C       0.422300
     40 H16         14.7330    40.3350    -6.0950 hn         1 H3C       0.422300
@<TRIPOS>BOND
     1     1     2 3   
     2     2     3 1   
     3     3     4 ar  
     4     3     6 ar  
     5     4     5 ar  
     6     4    27 1   
     7     5     8 ar  
     8     6     7 ar  
     9     6    28 1   
    10     7     8 ar  
    11     7    29 1   
    12     8     9 1   
    13     9    10 2   
    14     9    11 1   
    15    11    12 1   
    16    11    30 1   
    17    12    13 ar  
    18    12    14 ar  
    19    13    18 ar  
    20    13    31 1   
    21    14    15 ar  
    22    14    32 1   
    23    15    16 ar  
    24    15    33 1   
    25    16    17 1   
    26    16    18 ar  
    27    18    19 1   
    28    19    20 1   
    29    19    21 1   
    30    19    25 1   
    31    20    34 1   
    32    20    35 1   
    33    20    36 1   
    34    21    22 2   
    35    21    37 1   
    36    22    23 1   
    37    22    38 1   
    38    23    24 1   
    39    24    25 2   
    40    24    26 1   
    41    26    39 1   
    42    26    40 1   
@<TRIPOS>SUBSTRUCTURE
     1 H3C         1 TEMP              0 ****  ****    0 ROOT
