@<TRIPOS>MOLECULE
H3C
   40    42     1     0     0
SMALL
No Charge or Current Charge


@<TRIPOS>ATOM
      1 N5          20.6140    43.6440     0.9980 n1         1 H3C      -0.427000
      2 C18         20.7910    43.2290    -0.0780 cg         1 H3C       0.317000
      3 C15         21.0190    42.7230    -1.3980 ca         1 H3C      -0.052000
      4 C14         19.9610    42.1560    -2.1250 ca         1 H3C       0.379900
      5 N4          20.1080    41.6580    -3.3790 nb         1 H3C      -0.680000
      6 C16         22.2930    42.7800    -1.9890 ca         1 H3C      -0.044000
      7 C17         22.4520    42.2650    -3.2880 ca         1 H3C      -0.106000
      8 C13         21.3440    41.7080    -3.9660 ca         1 H3C       0.304500
      9 C12         21.5240    41.1490    -5.3800 c          1 H3C       0.512600
     10 O           22.6080    41.1650    -5.9630 o          1 H3C      -0.581100
     11 N3          20.3590    40.6300    -5.9390 ns         1 H3C      -0.122000
     12 C8          20.0740    40.0230    -7.1960 ca         1 H3C      -0.038000
     13 C7          18.7440    39.6250    -7.4350 ca         1 H3C      -0.119000
     14 C9          21.0470    39.8020    -8.1920 ca         1 H3C      -0.103000
     15 C10         20.6840    39.1890    -9.3990 ca         1 H3C      -0.131000
     16 C11         19.3580    38.7970    -9.6320 ca         1 H3C       0.156000
     17 F           19.0780    38.1980   -10.8110 f          1 H3C      -0.181000
     18 C6          18.3520    39.0130    -8.6570 ca         1 H3C      -0.095300
     19 C2          16.8750    38.5760    -8.9170 c6         1 H3C       0.254700
     20 C1          16.7990    37.0220    -8.9060 c3         1 H3C      -0.067100
     21 C5          16.3820    39.0690   -10.2790 c2         1 H3C      -0.210200
     22 C4          15.8100    40.2620   -10.4910 c2         1 H3C      -0.101400
     23 S           15.4670    41.3530    -9.1280 ss         1 H3C      -0.289800
     24 C3          15.4590    40.1670    -7.8030 c2         1 H3C       0.679100
     25 N1          15.9710    39.0030    -7.8240 n2         1 H3C      -0.685900
     26 N2          14.7170    40.6020    -6.7630 nv         1 H3C      -1.017200
     27 H1          18.9600    42.0950    -1.6990 h4         1 H3C       0.037100
     28 H2          23.1410    43.2110    -1.4580 ha         1 H3C       0.139000
     29 H3          23.4270    42.2980    -3.7670 ha         1 H3C       0.158000
     30 H4          19.5570    40.7000    -5.3240 hn         1 H3C       0.185000
     31 H5          18.0170    39.7960    -6.6460 ha         1 H3C       0.132000
     32 H6          22.0840    40.0890    -8.0510 ha         1 H3C       0.150000
     33 H7          21.4370    39.0120   -10.1640 ha         1 H3C       0.134000
     34 H8          17.1440    36.6160    -7.9480 hc         1 H3C       0.046700
     35 H9          15.7710    36.6720    -9.0640 hc         1 H3C       0.046700
     36 H10         17.4190    36.5740    -9.6900 hc         1 H3C       0.046700
     37 H11         16.5590    38.4030   -11.1250 ha         1 H3C       0.203000
     38 H13         15.5120    40.6100   -11.4820 h4         1 H3C       0.211000
     39 H15         14.0150    41.2780    -7.0340 hn         1 H3C       0.477500
     40 H16         14.3790    39.8430    -6.1870 hn         1 H3C       0.477500
@<TRIPOS>BOND
     1     1     2 3   
     2     2     3 1   
     3     3     4 ar  
     4     3     6 ar  
     5     4     5 ar  
     6     4    27 1   
     7     5     8 ar  
     8     6     7 ar  
     9     6    28 1   
    10     7     8 ar  
    11     7    29 1   
    12     8     9 1   
    13     9    10 2   
    14     9    11 1   
    15    11    12 1   
    16    11    30 1   
    17    12    13 ar  
    18    12    14 ar  
    19    13    18 ar  
    20    13    31 1   
    21    14    15 ar  
    22    14    32 1   
    23    15    16 ar  
    24    15    33 1   
    25    16    17 1   
    26    16    18 ar  
    27    18    19 1   
    28    19    20 1   
    29    19    21 1   
    30    19    25 1   
    31    20    34 1   
    32    20    35 1   
    33    20    36 1   
    34    21    22 2   
    35    21    37 1   
    36    22    23 1   
    37    22    38 1   
    38    23    24 1   
    39    24    25 2   
    40    24    26 1   
    41    26    39 1   
    42    26    40 1   
@<TRIPOS>SUBSTRUCTURE
     1 H3C         1 TEMP              0 ****  ****    0 ROOT
