@<TRIPOS>MOLECULE
H3D
   38    40     1     0     0
SMALL
No Charge or Current Charge


@<TRIPOS>ATOM
      1 C4          -2.0650     1.4050    -1.5380 c5         1 H3D      -0.089900
      2 C5          -2.4480    -1.4180     0.8770 c          1 H3D       0.600100
      3 C6          -3.5260    -2.4940     0.8840 c3         1 H3D      -0.181100
      4 C7          -0.1200     0.2380    -0.4290 ca         1 H3D      -0.070300
      5 C8           0.8440     0.5430     0.5640 ca         1 H3D      -0.084000
      6 C10          2.6040    -0.4880    -0.7790 ca         1 H3D       0.059100
      7 C13          4.9060    -0.2020    -0.1100 c6         1 H3D       0.117600
      8 O           -1.5620    -1.3870     1.7190 o          1 H3D      -0.599100
      9 C3          -1.6150     0.6030    -0.2800 c5         1 H3D       0.184700
     10 C2          -1.8960     1.6650     0.8320 c5         1 H3D      -0.089900
     11 C1          -3.3210     2.1770     0.4750 c5         1 H3D      -0.079900
     12 C           -3.3590     2.1630    -1.0880 c5         1 H3D      -0.079900
     13 C12          0.3090    -0.4670    -1.5790 ca         1 H3D      -0.100000
     14 C11          1.6570    -0.8230    -1.7550 ca         1 H3D      -0.108000
     15 O1           3.9290    -0.8250    -0.9720 os         1 H3D      -0.329100
     16 C14          4.3840    -0.1780     1.3430 c6         1 H3D       0.118600
     17 O2           3.0990     0.4820     1.3930 os         1 H3D      -0.331100
     18 C9           2.1900     0.1810     0.3970 ca         1 H3D       0.055100
     19 H1          -1.2930     2.1260    -1.8310 hc         1 H3D       0.058200
     20 H2          -2.2450     0.7710    -2.4140 hc         1 H3D       0.058200
     21 H3          -4.5100    -2.0130     0.9040 hc         1 H3D       0.057367
     22 H4          -3.5330    -2.9990    -0.0890 hc         1 H3D       0.057367
     23 H5          -3.4070    -3.2070     1.7080 hc         1 H3D       0.057367
     24 H6           0.5610     1.0470     1.4840 ha         1 H3D       0.130000
     25 H7           5.8540    -0.7530    -0.1740 h1         1 H3D       0.065200
     26 H8           5.0810     0.8280    -0.4530 h1         1 H3D       0.065200
     27 H9          -3.3550    -0.6370    -0.7840 hn         1 H3D       0.310500
     28 H10         -1.8470     1.2610     1.8490 hc         1 H3D       0.058200
     29 H11         -1.1790     2.4930     0.7810 hc         1 H3D       0.058200
     30 H12         -4.0940     1.5200     0.8910 hc         1 H3D       0.042450
     31 H13         -3.5090     3.1770     0.8830 hc         1 H3D       0.042450
     32 H14         -3.3820     3.1790    -1.5010 hc         1 H3D       0.042450
     33 H15         -4.2630     1.6600    -1.4480 hc         1 H3D       0.042450
     34 H16         -0.4100    -0.7450    -2.3460 ha         1 H3D       0.112000
     35 H17          1.9680    -1.3540    -2.6520 ha         1 H3D       0.125000
     36 H18          4.2710    -1.2080     1.7090 h1         1 H3D       0.066700
     37 H19          5.0900     0.3480     2.0020 h1         1 H3D       0.066700
     38 N           -2.5750    -0.5070    -0.1530 ns         1 H3D      -0.508900
@<TRIPOS>BOND
     1     1     9 1   
     2     1    12 1   
     3     1    19 1   
     4     1    20 1   
     5     2     3 1   
     6     2     8 2   
     7     2    38 1   
     8     3    21 1   
     9     3    22 1   
    10     3    23 1   
    11     4     5 ar  
    12     4     9 1   
    13     4    13 ar  
    14     5    18 ar  
    15     5    24 1   
    16     6    14 ar  
    17     6    15 1   
    18     6    18 ar  
    19     7    15 1   
    20     7    16 1   
    21     7    25 1   
    22     7    26 1   
    23     9    10 1   
    24     9    38 1   
    25    10    11 1   
    26    10    28 1   
    27    10    29 1   
    28    11    12 1   
    29    11    30 1   
    30    11    31 1   
    31    12    32 1   
    32    12    33 1   
    33    13    14 ar  
    34    13    34 1   
    35    14    35 1   
    36    16    17 1   
    37    16    36 1   
    38    16    37 1   
    39    17    18 1   
    40    27    38 1   
@<TRIPOS>SUBSTRUCTURE
     1 H3D         1 TEMP              0 ****  ****    0 ROOT
