@<TRIPOS>MOLECULE
H3D
   38    40     1     0     0
SMALL
bcc


@<TRIPOS>ATOM
      1 C4          -1.9490     1.5310    -1.4280 c5         1 H3D      -0.089900
      2 C5          -2.4980    -1.4450     0.7190 c          1 H3D       0.667100
      3 C6          -3.5240    -2.5330     0.5060 c3         1 H3D      -0.181100
      4 C7          -0.1360     0.1820    -0.2990 ca         1 H3D      -0.070300
      5 C8           0.8730     0.7110     0.4920 ca         1 H3D      -0.102000
      6 C10          2.5260    -0.6660    -0.6020 ca         1 H3D       0.059100
      7 C13          4.7790    -0.2490    -0.1940 c6         1 H3D       0.094400
      8 O           -1.7360    -1.4600     1.6740 o          1 H3D      -0.599100
      9 C3          -1.5730     0.6610    -0.2170 c5         1 H3D       0.184700
     10 C2          -1.9170     1.6210     0.9300 c5         1 H3D      -0.089900
     11 C1          -3.2640     2.2240     0.5200 c5         1 H3D      -0.079900
     12 C           -3.2630     2.2170    -1.0270 c5         1 H3D      -0.079900
     13 C12          0.2060    -0.7920    -1.2360 ca         1 H3D      -0.118000
     14 C11          1.5170    -1.2070    -1.3890 ca         1 H3D      -0.126000
     15 O1           3.8010    -1.0910    -0.7840 os         1 H3D      -0.305900
     16 C14          4.3570     0.1420     1.2020 c6         1 H3D       0.095400
     17 O2           3.1270     0.8480     1.1660 os         1 H3D      -0.307900
     18 C9           2.1930     0.2960     0.3510 ca         1 H3D       0.055100
     19 H1          -1.1580     2.2710    -1.5650 hc         1 H3D       0.058200
     20 H2          -2.0150     0.9580    -2.3550 hc         1 H3D       0.058200
     21 H3          -4.1830    -2.5810     1.3730 hc         1 H3D       0.057367
     22 H4          -4.1360    -2.3960    -0.3830 hc         1 H3D       0.057367
     23 H5          -3.0180    -3.4950     0.4300 hc         1 H3D       0.057367
     24 H6           0.6630     1.4550     1.2500 ha         1 H3D       0.148000
     25 H7           5.7130    -0.8090    -0.1650 h1         1 H3D       0.065200
     26 H8           4.9310     0.6440    -0.8100 h1         1 H3D       0.065200
     27 H9          -3.1430    -0.5520    -0.9740 hn         1 H3D       0.310500
     28 H10         -1.9300     1.1400     1.9060 hc         1 H3D       0.058200
     29 H11         -1.1650     2.4130     0.9660 hc         1 H3D       0.058200
     30 H12         -4.0880     1.6230     0.9050 hc         1 H3D       0.042450
     31 H13         -3.3920     3.2270     0.9280 hc         1 H3D       0.042450
     32 H14         -3.3230     3.2220    -1.4430 hc         1 H3D       0.042450
     33 H15         -4.1260     1.6720    -1.4120 hc         1 H3D       0.042450
     34 H16         -0.5570    -1.2410    -1.8590 ha         1 H3D       0.130000
     35 H17          1.7700    -1.9590    -2.1270 ha         1 H3D       0.143000
     36 H18          4.2640    -0.7470     1.8360 h1         1 H3D       0.066700
     37 H19          5.0960     0.8050     1.6510 h1         1 H3D       0.066700
     38 N           -2.4870    -0.4770    -0.2150 ns         1 H3D      -0.575900
@<TRIPOS>BOND
     1     1     9 1   
     2     1    12 1   
     3     1    19 1   
     4     1    20 1   
     5     2     3 1   
     6     2     8 2   
     7     2    38 1   
     8     3    21 1   
     9     3    22 1   
    10     3    23 1   
    11     4     5 ar  
    12     4     9 1   
    13     4    13 ar  
    14     5    18 ar  
    15     5    24 1   
    16     6    14 ar  
    17     6    15 1   
    18     6    18 ar  
    19     7    15 1   
    20     7    16 1   
    21     7    25 1   
    22     7    26 1   
    23     9    10 1   
    24     9    38 1   
    25    10    11 1   
    26    10    28 1   
    27    10    29 1   
    28    11    12 1   
    29    11    30 1   
    30    11    31 1   
    31    12    32 1   
    32    12    33 1   
    33    13    14 ar  
    34    13    34 1   
    35    14    35 1   
    36    16    17 1   
    37    16    36 1   
    38    16    37 1   
    39    17    18 1   
    40    27    38 1   
@<TRIPOS>SUBSTRUCTURE
     1 H3D         1 TEMP              0 ****  ****    0 ROOT
