@<TRIPOS>MOLECULE
H3E
   44    48     1     0     0
SMALL
No Charge or Current Charge


@<TRIPOS>ATOM
      1 C4           3.4990     0.3970    -0.3490 ca         1 H3E       0.446500
      2 C5           4.1000     1.6090    -0.7890 ca         1 H3E      -0.143000
      3 C6           3.3250     2.7850    -0.8870 ca         1 H3E      -0.060000
      4 N1           6.0640    -2.2560    -0.3260 nc         1 H3E      -0.529800
      5 C7           1.9830     2.6530    -0.5300 ca         1 H3E      -0.000900
      6 C8           1.4660     1.4440    -0.1100 ca         1 H3E       0.347800
      7 N2          -1.7080    -1.2390     1.3110 nc         1 H3E      -0.531800
      8 C9           0.0530     1.6810     0.1750 cc         1 H3E      -0.138000
      9 C10         -0.1620     3.0270    -0.1000 cd         1 H3E      -0.075900
     10 C11         -0.8710     0.7510     0.6250 cd         1 H3E      -0.138800
     11 C12         -0.6190    -0.6150     0.8960 cd         1 H3E       0.273900
     12 N3          -2.6690    -0.2390     1.2950 na         1 H3E       0.133800
     13 C13         -4.0570    -0.5320     1.7050 c3         1 H3E       0.137900
     14 C14         -5.0600    -0.5640     0.5520 ca         1 H3E      -0.120300
     15 C15         -6.3280     0.0330     0.7070 ca         1 H3E      -0.083000
     16 N4           2.1860     0.3080    -0.0080 nb         1 H3E      -0.644000
     17 N            4.9230    -2.8980     0.1070 na         1 H3E       0.131800
     18 C3           5.6460    -1.0200    -0.5250 cd         1 H3E       0.259900
     19 C2           4.2750    -0.8470    -0.2340 cd         1 H3E      -0.279500
     20 C1           3.8090    -2.0690     0.1760 cc         1 H3E      -0.117000
     21 O            1.0090     3.6070    -0.5260 os         1 H3E      -0.160200
     22 C20         -2.1860     1.0000     0.8830 cc         1 H3E      -0.163000
     23 C19         -4.7430    -1.1970    -0.6690 ca         1 H3E      -0.083000
     24 C18         -5.6760    -1.2230    -1.7200 ca         1 H3E      -0.114000
     25 C17         -6.9340    -0.6200    -1.5600 ca         1 H3E      -0.096000
     26 C16         -7.2600     0.0070    -0.3460 ca         1 H3E      -0.114000
     27 H1           5.1520     1.6390    -1.0520 ha         1 H3E       0.126000
     28 H2           3.7430     3.7320    -1.2200 ha         1 H3E       0.134000
     29 H3          -1.0520     3.6480    -0.0360 h4         1 H3E       0.238000
     30 H4           0.3010    -1.1760     0.8110 h4         1 H3E       0.052100
     31 H5          -4.0750    -1.5000     2.2200 h1         1 H3E       0.068200
     32 H6          -4.3570     0.2310     2.4350 h1         1 H3E       0.068200
     33 H7          -6.5930     0.5210     1.6430 ha         1 H3E       0.116000
     34 H8           5.6830    -4.4910     1.2580 h1         1 H3E       0.057367
     35 H9           3.9730    -4.6640     0.7650 h1         1 H3E       0.057367
     36 H10          5.2770    -4.9030    -0.4360 h1         1 H3E       0.057367
     37 H11          6.3560    -0.2820    -0.8770 h4         1 H3E       0.036100
     38 H12          2.8300    -2.4060     0.4960 h4         1 H3E       0.167000
     39 H13         -2.7960     1.8920     0.8120 h4         1 H3E       0.149000
     40 H14         -3.7740    -1.6730    -0.8060 ha         1 H3E       0.116000
     41 H15         -5.4230    -1.7110    -2.6590 ha         1 H3E       0.115500
     42 H16         -7.6560    -0.6400    -2.3740 ha         1 H3E       0.114000
     43 H17         -8.2350     0.4730    -0.2190 ha         1 H3E       0.115500
     44 C            4.9660    -4.3280     0.4450 c3         1 H3E       0.071900
@<TRIPOS>BOND
     1     1     2 ar  
     2     1    16 ar  
     3     1    19 1   
     4     2     3 ar  
     5     2    27 1   
     6     3     5 ar  
     7     3    28 1   
     8     4    17 1   
     9     4    18 2   
    10     5     6 ar  
    11     5    21 1   
    12     6     8 1   
    13     6    16 ar  
    14     7    11 2   
    15     7    12 1   
    16     8     9 2   
    17     8    10 1   
    18     9    21 1   
    19     9    29 1   
    20    10    11 1   
    21    10    22 2   
    22    11    30 1   
    23    12    13 1   
    24    12    22 1   
    25    13    14 1   
    26    13    31 1   
    27    13    32 1   
    28    14    15 ar  
    29    14    23 ar  
    30    15    26 ar  
    31    15    33 1   
    32    17    20 1   
    33    17    44 1   
    34    18    19 1   
    35    18    37 1   
    36    19    20 2   
    37    20    38 1   
    38    22    39 1   
    39    23    24 ar  
    40    23    40 1   
    41    24    25 ar  
    42    24    41 1   
    43    25    26 ar  
    44    25    42 1   
    45    26    43 1   
    46    34    44 1   
    47    35    44 1   
    48    36    44 1   
@<TRIPOS>SUBSTRUCTURE
     1 H3E         1 TEMP              0 ****  ****    0 ROOT
