@<TRIPOS>MOLECULE
H3E
   44    48     1     0     0
SMALL
bcc


@<TRIPOS>ATOM
      1 C4           3.3700     0.5160    -0.2580 ca         1 H3E       0.511800
      2 C5           4.0730     1.7120    -0.5010 ca         1 H3E      -0.226300
      3 C6           3.4530     2.9400    -0.3580 ca         1 H3E      -0.078000
      4 N1           5.5630    -2.3750    -0.8270 nc         1 H3E      -0.529800
      5 C7           2.1300     2.8910     0.0310 ca         1 H3E      -0.066200
      6 C8           1.4940     1.6710     0.2570 ca         1 H3E       0.413100
      7 N2          -1.9760    -0.8690     1.4650 nc         1 H3E      -0.531800
      8 C9           0.1410     1.9950     0.6430 cc         1 H3E      -0.138000
      9 C10          0.0950     3.3490     0.6160 cd         1 H3E      -0.025900
     10 C11         -0.9140     1.0610     0.9790 cd         1 H3E      -0.204100
     11 C12         -0.8140    -0.3360     1.1420 cd         1 H3E       0.339200
     12 N3          -2.8280     0.1490     1.5210 na         1 H3E       0.112400
     13 C13         -4.2390    -0.0970     1.7510 c3         1 H3E       0.108600
     14 C14         -4.9200    -0.6160     0.5120 ca         1 H3E      -0.120300
     15 C15         -5.5320     0.2660    -0.3740 ca         1 H3E      -0.101000
     16 N4           2.0940     0.4960     0.1170 nb         1 H3E      -0.644000
     17 N            4.4110    -2.9310    -0.4610 na         1 H3E       0.110400
     18 C3           5.3480    -1.0750    -0.8040 cd         1 H3E       0.325200
     19 C2           4.0270    -0.7770    -0.4140 cd         1 H3E      -0.344800
     20 C1           3.4620    -2.0220    -0.2030 cc         1 H3E      -0.084300
     21 O            1.2780     3.9100     0.2490 os         1 H3E      -0.160200
     22 C20         -2.2480     1.3240     1.2300 cc         1 H3E      -0.130300
     23 C19         -4.9200    -1.9770     0.2230 ca         1 H3E      -0.101000
     24 C18         -5.5210    -2.4500    -0.9350 ca         1 H3E      -0.132000
     25 C17         -6.1280    -1.5640    -1.8160 ca         1 H3E      -0.114000
     26 C16         -6.1330    -0.2040    -1.5340 ca         1 H3E      -0.132000
     27 H1           5.1110     1.6770    -0.8010 ha         1 H3E       0.144000
     28 H2           3.9780     3.8680    -0.5410 ha         1 H3E       0.152000
     29 H3          -0.7030     4.0420     0.8350 h4         1 H3E       0.188000
     30 H4           0.0660    -0.9510     1.0390 h4         1 H3E       0.052100
     31 H5          -4.3240    -0.8060     2.5730 h1         1 H3E       0.068200
     32 H6          -4.6860     0.8420     2.0750 h1         1 H3E       0.068200
     33 H7          -5.5440     1.3270    -0.1540 ha         1 H3E       0.134000
     34 H8           4.9790    -4.7540     0.3840 h1         1 H3E       0.057367
     35 H9           3.2800    -4.6230    -0.0910 h1         1 H3E       0.057367
     36 H10          4.5280    -4.8240    -1.3300 h1         1 H3E       0.057367
     37 H11          6.1440    -0.3940    -1.0680 h4         1 H3E       0.036100
     38 H12          2.4700    -2.3050     0.1070 h4         1 H3E       0.185000
     39 H13         -2.8060     2.2470     1.2270 h4         1 H3E       0.167000
     40 H14         -4.4470    -2.6710     0.9070 ha         1 H3E       0.134000
     41 H15         -5.5180    -3.5100    -1.1500 ha         1 H3E       0.133500
     42 H16         -6.5990    -1.9330    -2.7190 ha         1 H3E       0.132000
     43 H17         -6.6080     0.4910    -2.2150 ha         1 H3E       0.133500
     44 C            4.2970    -4.3670    -0.3700 c3         1 H3E       0.042600
@<TRIPOS>BOND
     1     1     2 ar  
     2     1    16 ar  
     3     1    19 1   
     4     2     3 ar  
     5     2    27 1   
     6     3     5 ar  
     7     3    28 1   
     8     4    17 1   
     9     4    18 2   
    10     5     6 ar  
    11     5    21 1   
    12     6     8 1   
    13     6    16 ar  
    14     7    11 2   
    15     7    12 1   
    16     8     9 2   
    17     8    10 1   
    18     9    21 1   
    19     9    29 1   
    20    10    11 1   
    21    10    22 2   
    22    11    30 1   
    23    12    13 1   
    24    12    22 1   
    25    13    14 1   
    26    13    31 1   
    27    13    32 1   
    28    14    15 ar  
    29    14    23 ar  
    30    15    26 ar  
    31    15    33 1   
    32    17    20 1   
    33    17    44 1   
    34    18    19 1   
    35    18    37 1   
    36    19    20 2   
    37    20    38 1   
    38    22    39 1   
    39    23    24 ar  
    40    23    40 1   
    41    24    25 ar  
    42    24    41 1   
    43    25    26 ar  
    44    25    42 1   
    45    26    43 1   
    46    34    44 1   
    47    35    44 1   
    48    36    44 1   
@<TRIPOS>SUBSTRUCTURE
     1 H3E         1 TEMP              0 ****  ****    0 ROOT
