@<TRIPOS>MOLECULE
H3F
   61    63     1     0     0
SMALL
bcc


@<TRIPOS>ATOM
      1 C01          4.7850     0.5360    19.6180 c3         1 H3F      -0.051800
      2 C02          5.7900    -0.2040    20.4520 ca         1 H3F      -0.006300
      3 C03          6.6890    -1.0010    19.8040 ca         1 H3F      -0.247300
      4 C04          7.6750    -1.7040    20.5350 ca         1 H3F       0.651600
      5 N05          7.7950    -1.6110    21.8180 nb         1 H3F      -0.774000
      6 C06          6.9280    -0.8280    22.5030 ca         1 H3F       0.354600
      7 C07          5.8770    -0.1080    21.8850 ca         1 H3F      -0.089300
      8 C08          5.0090     0.6440    22.7060 ca         1 H3F      -0.016900
      9 C09          5.1990     0.6960    24.0740 ca         1 H3F       0.186100
     10 C10          6.2600     0.0060    24.6760 ca         1 H3F      -0.304000
     11 C11          7.1240    -0.7700    23.9220 ca         1 H3F       0.189300
     12 N12          8.1770    -1.4620    24.4350 nu         1 H3F      -0.745600
     13 C13          8.3330    -1.9260    25.8090 c3         1 H3F       0.233500
     14 C14          8.7030    -0.8080    26.7820 c3         1 H3F      -0.097100
     15 C15          7.1420    -2.7730    26.2740 c3         1 H3F      -0.092400
     16 C16          7.3100    -3.4140    27.6490 c3         1 H3F      -0.069400
     17 C17          8.5390    -4.3010    27.8100 c3         1 H3F       0.146800
     18 N18          8.5870    -5.3370    26.7890 n8         1 H3F      -0.889800
     19 O19          4.3100     1.4290    24.7660 os         1 H3F      -0.303900
     20 C20          4.4470     1.5330    26.1690 c3         1 H3F       0.125700
     21 O21          3.9470     1.3470    22.1870 os         1 H3F      -0.221200
     22 C22          2.7240     0.7610    22.1840 ca         1 H3F       0.140100
     23 C23          1.6450     1.5830    21.8640 ca         1 H3F      -0.135000
     24 C24          0.3730     1.0480    21.8000 ca         1 H3F      -0.107000
     25 C25          0.1520    -0.3030    22.0430 ca         1 H3F      -0.120000
     26 C26          1.2330    -1.1100    22.3580 ca         1 H3F      -0.163300
     27 C27          2.5220    -0.5880    22.4360 ca         1 H3F      -0.158000
     28 C28          1.0600    -2.5750    22.6200 c3         1 H3F       0.718200
     29 F29          1.4330    -2.9020    23.8660 f          1 H3F      -0.236633
     30 F30          1.8130    -3.3210    21.7980 f          1 H3F      -0.236633
     31 F31         -0.2030    -2.9790    22.4710 f          1 H3F      -0.236633
     32 O32          8.4960    -2.4790    19.8220 os         1 H3F      -0.436100
     33 C33          9.4980    -3.1990    20.5220 c3         1 H3F       0.134700
     34 H1           3.7650     0.1990    19.8060 hc         1 H3F       0.053033
     35 H2           4.8150     1.6090    19.7960 hc         1 H3F       0.053033
     36 H3           4.9880     0.3670    18.5620 hc         1 H3F       0.053033
     37 H4           6.6580    -1.0970    18.7260 ha         1 H3F       0.154000
     38 H5           6.3980     0.0800    25.7420 ha         1 H3F       0.145000
     39 H6           8.6250    -2.0430    23.7430 hn         1 H3F       0.448800
     40 H7           9.2010    -2.5870    25.7530 h1         1 H3F       0.061700
     41 H8           9.1230    -1.2270    27.6970 hc         1 H3F       0.039700
     42 H9           9.4570    -0.1560    26.3430 hc         1 H3F       0.039700
     43 H10          7.8520    -0.1930    27.0770 hc         1 H3F       0.039700
     44 H11          6.2360    -2.1620    26.2910 hc         1 H3F       0.052700
     45 H12          6.9720    -3.5510    25.5270 hc         1 H3F       0.052700
     46 H13          7.3370    -2.6450    28.4260 hc         1 H3F       0.039200
     47 H14          6.4160    -4.0100    27.8580 hc         1 H3F       0.039200
     48 H15          8.5410    -4.6960    28.8360 h1         1 H3F       0.026700
     49 H16          9.4460    -3.6960    27.7230 h1         1 H3F       0.026700
     50 H17          9.4120    -5.9070    26.9220 hn         1 H3F       0.338300
     51 H18          7.7990    -5.9630    26.9110 hn         1 H3F       0.338300
     52 H20          3.6290     2.1640    26.5090 h1         1 H3F       0.042033
     53 H21          4.3680     0.5620    26.6630 h1         1 H3F       0.042033
     54 H22          5.3920     2.0010    26.4560 h1         1 H3F       0.042033
     55 H23          1.8120     2.6350    21.6690 ha         1 H3F       0.150000
     56 H24         -0.4630     1.6890    21.5550 ha         1 H3F       0.137000
     57 H25         -0.8520    -0.7000    21.9830 ha         1 H3F       0.148000
     58 H26          3.3610    -1.2280    22.6810 ha         1 H3F       0.159000
     59 H27         10.0440    -3.7620    19.7700 h1         1 H3F       0.044367
     60 H28         10.1860    -2.5330    21.0440 h1         1 H3F       0.044367
     61 H29          9.0670    -3.8920    21.2470 h1         1 H3F       0.044367
@<TRIPOS>BOND
     1     1     2 1   
     2     1    34 1   
     3     1    35 1   
     4     1    36 1   
     5     2     3 ar  
     6     2     7 ar  
     7     3     4 ar  
     8     3    37 1   
     9     4     5 ar  
    10     4    32 1   
    11     5     6 ar  
    12     6     7 ar  
    13     6    11 ar  
    14     7     8 ar  
    15     8     9 ar  
    16     8    21 1   
    17     9    10 ar  
    18     9    19 1   
    19    10    11 ar  
    20    10    38 1   
    21    11    12 1   
    22    12    13 1   
    23    12    39 1   
    24    13    14 1   
    25    13    15 1   
    26    13    40 1   
    27    14    41 1   
    28    14    42 1   
    29    14    43 1   
    30    15    16 1   
    31    15    44 1   
    32    15    45 1   
    33    16    17 1   
    34    16    46 1   
    35    16    47 1   
    36    17    18 1   
    37    17    48 1   
    38    17    49 1   
    39    18    50 1   
    40    18    51 1   
    41    19    20 1   
    42    20    52 1   
    43    20    53 1   
    44    20    54 1   
    45    21    22 1   
    46    22    23 ar  
    47    22    27 ar  
    48    23    24 ar  
    49    23    55 1   
    50    24    25 ar  
    51    24    56 1   
    52    25    26 ar  
    53    25    57 1   
    54    26    27 ar  
    55    26    28 1   
    56    27    58 1   
    57    28    29 1   
    58    28    30 1   
    59    28    31 1   
    60    32    33 1   
    61    33    59 1   
    62    33    60 1   
    63    33    61 1   
@<TRIPOS>SUBSTRUCTURE
     1 H3F         1 TEMP              0 ****  ****    0 ROOT
