@<TRIPOS>MOLECULE
H3F
   61    63     1     0     0
SMALL
No Charge or Current Charge


@<TRIPOS>ATOM
      1 C01          4.8440     0.0440    19.4610 c3         1 H3F      -0.051800
      2 C02          5.9610    -0.4410    20.3870 ca         1 H3F      -0.006300
      3 C03          6.9830    -1.2060    19.7990 ca         1 H3F      -0.164000
      4 C04          8.0430    -1.6820    20.5680 ca         1 H3F       0.586300
      5 N05          8.1360    -1.4360    21.8860 nb         1 H3F      -0.774000
      6 C06          7.1630    -0.7000    22.5040 ca         1 H3F       0.224000
      7 C07          6.0430    -0.1710    21.7900 ca         1 H3F      -0.024000
      8 C08          5.0710     0.5880    22.5090 ca         1 H3F      -0.016900
      9 C09          5.2230     0.8420    23.8910 ca         1 H3F       0.186100
     10 C10          6.3260     0.3220    24.5820 ca         1 H3F      -0.286000
     11 C11          7.2710    -0.4550    23.9090 ca         1 H3F       0.393000
     12 N12          8.3710    -0.9820    24.6100 nu         1 H3F      -0.939200
     13 C13          8.3420    -1.7710    25.8570 c3         1 H3F       0.233500
     14 C14          8.5550    -0.8550    27.0840 c3         1 H3F      -0.097100
     15 C15          7.0730    -2.6660    25.9430 c3         1 H3F      -0.092400
     16 C16          7.0200    -3.6400    27.1520 c3         1 H3F      -0.069400
     17 C17          8.1940    -4.6440    27.2580 c3         1 H3F       0.146800
     18 N18          8.2650    -5.5520    26.0990 n8         1 H3F      -1.000200
     19 O19          4.2680     1.6120    24.5330 os         1 H3F      -0.327100
     20 C20          4.3050     1.8790    25.9460 c3         1 H3F       0.148900
     21 O21          3.9560     1.1040    21.8830 os         1 H3F      -0.221200
     22 C22          2.6810     0.6380    22.1290 ca         1 H3F       0.140100
     23 C23          1.5910     1.4380    21.7540 ca         1 H3F      -0.117000
     24 C24          0.2790     0.9930    21.9850 ca         1 H3F      -0.089000
     25 C25          0.0540    -0.2580    22.5840 ca         1 H3F      -0.102000
     26 C26          1.1400    -1.0850    22.9510 ca         1 H3F      -0.163300
     27 C27          2.4550    -0.6230    22.7210 ca         1 H3F      -0.140000
     28 C28          0.9060    -2.4500    23.6110 c3         1 H3F       0.354300
     29 F29          0.9860    -2.3640    24.9580 f          1 H3F      -0.115333
     30 F30          1.8180    -3.3690    23.2190 f          1 H3F      -0.115333
     31 F31         -0.3100    -2.9680    23.3200 f          1 H3F      -0.115333
     32 O32          9.0150    -2.4240    19.9370 os         1 H3F      -0.459300
     33 C33         10.1360    -2.9590    20.6660 c3         1 H3F       0.157900
     34 H1           3.8760    -0.3850    19.7460 hc         1 H3F       0.053033
     35 H2           4.7620     1.1370    19.4700 hc         1 H3F       0.053033
     36 H3           5.0210    -0.2470    18.4190 hc         1 H3F       0.053033
     37 H4           6.9670    -1.4380    18.7390 ha         1 H3F       0.136000
     38 H5           6.4620     0.5160    25.6360 ha         1 H3F       0.127000
     39 H6           9.0180    -1.3590    23.9110 hn         1 H3F       0.504000
     40 H7           9.2140    -2.4410    25.8280 h1         1 H3F       0.061700
     41 H8           8.7800    -1.4530    27.9740 hc         1 H3F       0.039700
     42 H9           9.4020    -0.1780    26.9200 hc         1 H3F       0.039700
     43 H10          7.6670    -0.2540    27.3030 hc         1 H3F       0.039700
     44 H11          6.1810    -2.0310    25.9870 hc         1 H3F       0.052700
     45 H12          6.9890    -3.2490    25.0180 hc         1 H3F       0.052700
     46 H13          6.9750    -3.0590    28.0800 hc         1 H3F       0.039200
     47 H14          6.0790    -4.2020    27.1070 hc         1 H3F       0.039200
     48 H15          8.0630    -5.2520    28.1640 h1         1 H3F       0.026700
     49 H16          9.1460    -4.1050    27.3480 h1         1 H3F       0.026700
     50 H17          9.0000    -6.2510    26.2650 hn         1 H3F       0.393500
     51 H18          7.4060    -6.1120    26.0600 hn         1 H3F       0.393500
     52 H20          3.4440     2.4920    26.2380 h1         1 H3F       0.042033
     53 H21          4.2690     0.9440    26.5200 h1         1 H3F       0.042033
     54 H22          5.2180     2.4250    26.2160 h1         1 H3F       0.042033
     55 H23          1.7660     2.4060    21.2910 ha         1 H3F       0.132000
     56 H24         -0.5640     1.6190    21.7010 ha         1 H3F       0.119000
     57 H25         -0.9700    -0.5810    22.7610 ha         1 H3F       0.130000
     58 H26          3.2990    -1.2470    23.0020 ha         1 H3F       0.141000
     59 H27         10.7960    -3.5210    19.9930 h1         1 H3F       0.044367
     60 H28         10.7250    -2.1550    21.1260 h1         1 H3F       0.044367
     61 H29          9.7990    -3.6420    21.4580 h1         1 H3F       0.044367
@<TRIPOS>BOND
     1     1     2 1   
     2     1    34 1   
     3     1    35 1   
     4     1    36 1   
     5     2     3 ar  
     6     2     7 ar  
     7     3     4 ar  
     8     3    37 1   
     9     4     5 ar  
    10     4    32 1   
    11     5     6 ar  
    12     6     7 ar  
    13     6    11 ar  
    14     7     8 ar  
    15     8     9 ar  
    16     8    21 1   
    17     9    10 ar  
    18     9    19 1   
    19    10    11 ar  
    20    10    38 1   
    21    11    12 1   
    22    12    13 1   
    23    12    39 1   
    24    13    14 1   
    25    13    15 1   
    26    13    40 1   
    27    14    41 1   
    28    14    42 1   
    29    14    43 1   
    30    15    16 1   
    31    15    44 1   
    32    15    45 1   
    33    16    17 1   
    34    16    46 1   
    35    16    47 1   
    36    17    18 1   
    37    17    48 1   
    38    17    49 1   
    39    18    50 1   
    40    18    51 1   
    41    19    20 1   
    42    20    52 1   
    43    20    53 1   
    44    20    54 1   
    45    21    22 1   
    46    22    23 ar  
    47    22    27 ar  
    48    23    24 ar  
    49    23    55 1   
    50    24    25 ar  
    51    24    56 1   
    52    25    26 ar  
    53    25    57 1   
    54    26    27 ar  
    55    26    28 1   
    56    27    58 1   
    57    28    29 1   
    58    28    30 1   
    59    28    31 1   
    60    32    33 1   
    61    33    59 1   
    62    33    60 1   
    63    33    61 1   
@<TRIPOS>SUBSTRUCTURE
     1 H3F         1 TEMP              0 ****  ****    0 ROOT
