@<TRIPOS>MOLECULE
H3G
   41    42     1     0     0
SMALL
bcc


@<TRIPOS>ATOM
      1 N1           0.2800    -0.8540     0.7530 n          1 H3G      -0.464800
      2 C4          -4.8670    -0.3830    -0.1680 c3         1 H3G      -0.084433
      3 C5          -2.4640     0.0880     0.4280 c6         1 H3G      -0.046700
      4 C6          -1.2500     1.0170     0.3360 c6         1 H3G      -0.098900
      5 C7          -0.0620     0.5030     1.1440 c6         1 H3G       0.092500
      6 C8          -0.8370    -1.7720     0.9030 c6         1 H3G       0.092500
      7 C10          1.3350    -1.1910    -0.0150 c          1 H3G       0.680700
      8 C13          4.2810     0.9650     1.0000 ca         1 H3G      -0.136000
      9 C15          4.1220     0.9380    -1.3980 ca         1 H3G      -0.136000
     10 C2          -3.7040     0.5960    -0.3550 c3         1 H3G      -0.038000
     11 C3          -4.1420     1.9560     0.1980 c3         1 H3G      -0.084433
     12 C9          -2.0290    -1.3340     0.0630 c6         1 H3G      -0.098900
     13 O1           1.4080    -2.2490    -0.6290 o          1 H3G      -0.596100
     14 C11          2.4910    -0.2410    -0.0720 ca         1 H3G      -0.141600
     15 C12          3.1420     0.1760     1.0860 ca         1 H3G      -0.094500
     16 C14          4.7690     1.3530    -0.2410 ca         1 H3G      -0.114000
     17 C16          2.9960     0.1310    -1.3150 ca         1 H3G      -0.094500
     18 H1          -4.6790    -1.3460    -0.6440 hc         1 H3G       0.033256
     19 H2          -5.0680    -0.5680     0.8910 hc         1 H3G       0.033256
     20 H3          -5.7800     0.0210    -0.6110 hc         1 H3G       0.033256
     21 H4          -2.7670     0.0620     1.4860 hc         1 H3G       0.041700
     22 H5          -0.9350     1.1340    -0.7050 hc         1 H3G       0.050950
     23 H6          -1.4910     2.0150     0.7060 hc         1 H3G       0.050950
     24 H7          -0.3040     0.5070     2.2120 h1         1 H3G       0.056700
     25 H8           0.7870     1.1670     1.0080 h1         1 H3G       0.056700
     26 H9          -0.5200    -2.7790     0.6430 h1         1 H3G       0.056700
     27 H10         -1.1170    -1.7810     1.9620 h1         1 H3G       0.056700
     28 H12          4.4990     1.2340    -2.3680 ha         1 H3G       0.133500
     29 H13         -4.3270     1.0770    -2.3720 hc         1 H3G       0.033256
     30 H14         -2.6480     1.4830    -2.0560 hc         1 H3G       0.033256
     31 H15         -3.1200    -0.1980    -2.3110 hc         1 H3G       0.033256
     32 H16         -4.3320     1.9070     1.2730 hc         1 H3G       0.033256
     33 H17         -3.3980     2.7340     0.0250 hc         1 H3G       0.033256
     34 H18         -5.0650     2.2810    -0.2860 hc         1 H3G       0.033256
     35 H19         -2.8380    -2.0470     0.2320 hc         1 H3G       0.050950
     36 H20         -1.7610    -1.4030    -0.9950 hc         1 H3G       0.050950
     37 H21          2.7680    -0.1220     2.0580 ha         1 H3G       0.140000
     38 H22          5.6520     1.9740    -0.3070 ha         1 H3G       0.132000
     39 H23          2.5040    -0.2000    -2.2210 ha         1 H3G       0.140000
     40 C1          -3.4260     0.7450    -1.8530 c3         1 H3G      -0.084433
     41 H11          4.7880     1.2740     1.9050 ha         1 H3G       0.133500
@<TRIPOS>BOND
     1     1     5 1   
     2     1     6 1   
     3     1     7 1   
     4     2    10 1   
     5     2    18 1   
     6     2    19 1   
     7     2    20 1   
     8     3     4 1   
     9     3    10 1   
    10     3    12 1   
    11     3    21 1   
    12     4     5 1   
    13     4    22 1   
    14     4    23 1   
    15     5    24 1   
    16     5    25 1   
    17     6    12 1   
    18     6    26 1   
    19     6    27 1   
    20     7    13 2   
    21     7    14 1   
    22     8    15 ar  
    23     8    16 ar  
    24     8    41 1   
    25     9    16 ar  
    26     9    17 ar  
    27     9    28 1   
    28    10    11 1   
    29    10    40 1   
    30    11    32 1   
    31    11    33 1   
    32    11    34 1   
    33    12    35 1   
    34    12    36 1   
    35    14    15 ar  
    36    14    17 ar  
    37    15    37 1   
    38    16    38 1   
    39    17    39 1   
    40    29    40 1   
    41    30    40 1   
    42    31    40 1   
@<TRIPOS>SUBSTRUCTURE
     1 H3G         1 TEMP              0 ****  ****    0 ROOT
