@<TRIPOS>MOLECULE
H3G
   41    42     1     0     0
SMALL
No Charge or Current Charge


@<TRIPOS>ATOM
      1 N1           0.3250    -0.8080     0.6030 n          1 H3G      -0.397800
      2 C4          -5.0190    -0.4040     0.0370 c3         1 H3G      -0.084433
      3 C5          -2.5150     0.0990     0.4260 c6         1 H3G      -0.046700
      4 C6          -1.3060     1.0700     0.2480 c6         1 H3G      -0.098900
      5 C7          -0.0500     0.5750     1.0020 c6         1 H3G       0.092500
      6 C8          -0.7880    -1.7760     0.7790 c6         1 H3G       0.092500
      7 C10          1.4000    -1.0730    -0.2790 c          1 H3G       0.613700
      8 C13          4.2720     1.0760     1.1180 ca         1 H3G      -0.118000
      9 C15          4.6350     0.7270    -1.2580 ca         1 H3G      -0.118000
     10 C2          -3.8560     0.5820    -0.2750 c3         1 H3G      -0.038000
     11 C3          -4.2890     1.9760     0.2660 c3         1 H3G      -0.084433
     12 C9          -2.0540    -1.3540     0.0000 c6         1 H3G      -0.098900
     13 O1           1.3580    -2.0250    -1.0500 o          1 H3G      -0.596100
     14 C11          2.6550    -0.2280    -0.1800 ca         1 H3G      -0.141600
     15 C12          3.0900     0.3180     1.0510 ca         1 H3G      -0.076500
     16 C14          5.0420     1.2860    -0.0360 ca         1 H3G      -0.096000
     17 C16          3.4540    -0.0320    -1.3280 ca         1 H3G      -0.076500
     18 H1          -4.8600    -1.3800    -0.4360 hc         1 H3G       0.033256
     19 H2          -5.1230    -0.5600     1.1170 hc         1 H3G       0.033256
     20 H3          -5.9750    -0.0190    -0.3400 hc         1 H3G       0.033256
     21 H4          -2.7430     0.0620     1.5010 hc         1 H3G       0.041700
     22 H5          -1.0570     1.1770    -0.8160 hc         1 H3G       0.050950
     23 H6          -1.5520     2.0740     0.6160 hc         1 H3G       0.050950
     24 H7          -0.2390     0.5960     2.0850 h1         1 H3G       0.056700
     25 H8           0.7650     1.2830     0.8000 h1         1 H3G       0.056700
     26 H9          -0.4770    -2.7820     0.4600 h1         1 H3G       0.056700
     27 H10         -1.0300    -1.8440     1.8490 h1         1 H3G       0.056700
     28 H12          5.2360     0.8800    -2.1520 ha         1 H3G       0.115500
     29 H13         -4.6630     1.0210    -2.2710 hc         1 H3G       0.033256
     30 H14         -2.9480     1.4130    -2.1080 hc         1 H3G       0.033256
     31 H15         -3.4650    -0.2780    -2.2700 hc         1 H3G       0.033256
     32 H16         -4.3420     1.9740     1.3610 hc         1 H3G       0.033256
     33 H17         -3.5910     2.7640    -0.0410 hc         1 H3G       0.033256
     34 H18         -5.2770     2.2580    -0.1170 hc         1 H3G       0.033256
     35 H19         -2.8150    -2.1490     0.1500 hc         1 H3G       0.050950
     36 H20         -1.8170    -1.3680    -1.0720 hc         1 H3G       0.050950
     37 H21          2.5230     0.1440     1.9630 ha         1 H3G       0.122000
     38 H22          5.9580     1.8720     0.0170 ha         1 H3G       0.114000
     39 H23          3.1530    -0.4610    -2.2820 ha         1 H3G       0.122000
     40 C1          -3.7190     0.6890    -1.8210 c3         1 H3G      -0.084433
     41 H11          4.5940     1.4950     2.0690 ha         1 H3G       0.115500
@<TRIPOS>BOND
     1     1     5 1   
     2     1     6 1   
     3     1     7 1   
     4     2    10 1   
     5     2    18 1   
     6     2    19 1   
     7     2    20 1   
     8     3     4 1   
     9     3    10 1   
    10     3    12 1   
    11     3    21 1   
    12     4     5 1   
    13     4    22 1   
    14     4    23 1   
    15     5    24 1   
    16     5    25 1   
    17     6    12 1   
    18     6    26 1   
    19     6    27 1   
    20     7    13 2   
    21     7    14 1   
    22     8    15 ar  
    23     8    16 ar  
    24     8    41 1   
    25     9    16 ar  
    26     9    17 ar  
    27     9    28 1   
    28    10    11 1   
    29    10    40 1   
    30    11    32 1   
    31    11    33 1   
    32    11    34 1   
    33    12    35 1   
    34    12    36 1   
    35    14    15 ar  
    36    14    17 ar  
    37    15    37 1   
    38    16    38 1   
    39    17    39 1   
    40    29    40 1   
    41    30    40 1   
    42    31    40 1   
@<TRIPOS>SUBSTRUCTURE
     1 H3G         1 TEMP              0 ****  ****    0 ROOT
