@<TRIPOS>MOLECULE
H3H
   44    47     1     0     0
SMALL
abcg2


@<TRIPOS>ATOM
      1 C4           2.9980     2.3820    -0.5350 ca         1 H3H      -0.145000
      2 C5           1.6820     2.3390    -0.9520 ca         1 H3H      -0.081000
      3 C6           0.9110     1.1960    -0.7780 ca         1 H3H      -0.123000
      4 N1          -5.1120     2.0030    -0.1940 na         1 H3H       0.131800
      5 C7           1.4720     0.0760    -0.1710 ca         1 H3H       0.022200
      6 C8           2.8010     0.1200     0.2660 ca         1 H3H      -0.200000
      7 N2          -1.7200    -0.4200    -0.0220 nb         1 H3H      -0.647000
      8 C9           0.6950    -1.1520    -0.0050 cc         1 H3H      -0.194000
      9 C10          1.1790    -2.4120     0.1310 cd         1 H3H      -0.052900
     10 C11         -0.9660    -2.6770     0.2230 ca         1 H3H      -0.006900
     11 C12         -2.2450    -3.1820     0.3290 ca         1 H3H      -0.057000
     12 C13         -3.2590    -2.2450     0.2520 ca         1 H3H      -0.144000
     13 C14         -2.9650    -0.8790     0.0780 ca         1 H3H       0.451500
     14 C15         -4.0330     0.1110     0.0020 cc         1 H3H      -0.281500
     15 N           -6.0630     1.0900    -0.0150 nd         1 H3H      -0.528800
     16 C16         -5.4280    -0.0590     0.1030 cc         1 H3H       0.260900
     17 C18         -3.8830     1.4720    -0.1880 cd         1 H3H      -0.116000
     18 C19         -0.7410    -1.3120     0.0490 ca         1 H3H       0.354800
     19 O1           0.2050    -3.3420     0.2690 os         1 H3H      -0.158200
     20 C3           3.5690     1.2650     0.0830 ca         1 H3H       0.151100
     21 O            4.8470     1.4050     0.4800 os         1 H3H      -0.357100
     22 C1           5.5650     0.3080     1.0530 c3         1 H3H       0.180300
     23 C2           5.9910    -0.6820    -0.0190 c3         1 H3H      -0.107100
     24 C            6.7560     0.9100     1.7710 c3         1 H3H      -0.107100
     25 H1           3.5930     3.2760    -0.6730 ha         1 H3H       0.125000
     26 H2           1.2470     3.2110    -1.4240 ha         1 H3H       0.112000
     27 H3          -0.1170     1.1800    -1.1110 ha         1 H3H       0.135000
     28 H4           3.2140    -0.7460     0.7660 ha         1 H3H       0.111000
     29 H5           2.1890    -2.7920     0.1310 h4         1 H3H       0.241000
     30 H6          -2.4510    -4.2360     0.4650 ha         1 H3H       0.135000
     31 H7          -4.2870    -2.5710     0.3280 ha         1 H3H       0.127000
     32 H8          -5.8760     3.7810     0.5990 h1         1 H3H       0.057700
     33 H9          -4.5690     3.9620    -0.5810 h1         1 H3H       0.057700
     34 H10         -6.1940     3.5210    -1.1270 h1         1 H3H       0.057700
     35 H11         -5.9880    -0.9690     0.2580 h4         1 H3H       0.037100
     36 H12         -2.9980     2.0740    -0.3200 h4         1 H3H       0.168000
     37 H13          4.9320    -0.1950     1.7920 h1         1 H3H       0.041700
     38 H14          5.1430    -1.1180    -0.5470 hc         1 H3H       0.046033
     39 H15          6.6390    -0.1990    -0.7530 hc         1 H3H       0.046033
     40 H16          6.5500    -1.5000     0.4360 hc         1 H3H       0.046033
     41 H17          6.4420     1.6090     2.5470 hc         1 H3H       0.046033
     42 H18          7.3350     0.1210     2.2480 hc         1 H3H       0.046033
     43 H19          7.4120     1.4340     1.0740 hc         1 H3H       0.046033
     44 C17         -5.4630     3.3970    -0.3320 c3         1 H3H       0.071900
@<TRIPOS>BOND
     1     1     2 ar  
     2     1    20 ar  
     3     1    25 1   
     4     2     3 ar  
     5     2    26 1   
     6     3     5 ar  
     7     3    27 1   
     8     4    15 1   
     9     4    17 1   
    10     4    44 1   
    11     5     6 ar  
    12     5     8 1   
    13     6    20 ar  
    14     6    28 1   
    15     7    13 ar  
    16     7    18 ar  
    17     8     9 2   
    18     8    18 1   
    19     9    19 1   
    20     9    29 1   
    21    10    11 ar  
    22    10    18 ar  
    23    10    19 1   
    24    11    12 ar  
    25    11    30 1   
    26    12    13 ar  
    27    12    31 1   
    28    13    14 1   
    29    14    16 1   
    30    14    17 2   
    31    15    16 2   
    32    16    35 1   
    33    17    36 1   
    34    20    21 1   
    35    21    22 1   
    36    22    23 1   
    37    22    24 1   
    38    22    37 1   
    39    23    38 1   
    40    23    39 1   
    41    23    40 1   
    42    24    41 1   
    43    24    42 1   
    44    24    43 1   
    45    32    44 1   
    46    33    44 1   
    47    34    44 1   
@<TRIPOS>SUBSTRUCTURE
     1 H3H         1 TEMP              0 ****  ****    0 ROOT
