@<TRIPOS>MOLECULE
H3H
   44    47     1     0     0
SMALL
No Charge or Current Charge


@<TRIPOS>ATOM
      1 C4           3.0410     2.3630    -0.6150 ca         1 H3H      -0.145000
      2 C5           1.7380     2.3050    -1.1320 ca         1 H3H      -0.081000
      3 C6           0.9590     1.1520    -0.9410 ca         1 H3H      -0.123000
      4 N1          -5.1720     2.0170    -0.1330 na         1 H3H       0.131800
      5 C7           1.4720     0.0500    -0.2290 ca         1 H3H       0.022200
      6 C8           2.7830     0.1180     0.2870 ca         1 H3H      -0.200000
      7 N2          -1.7560    -0.4070    -0.0130 nb         1 H3H      -0.647000
      8 C9           0.6580    -1.1520    -0.0290 cc         1 H3H      -0.194000
      9 C10          1.2040    -2.4270     0.0960 cd         1 H3H      -0.052900
     10 C11         -0.9980    -2.6850     0.2090 ca         1 H3H      -0.006900
     11 C12         -2.2880    -3.2020     0.3260 ca         1 H3H      -0.057000
     12 C13         -3.3310    -2.2510     0.2640 ca         1 H3H      -0.144000
     13 C14         -3.0310    -0.8700     0.0950 ca         1 H3H       0.451500
     14 C15         -4.1110     0.1160     0.0320 cc         1 H3H      -0.281500
     15 N           -6.1780     1.0680     0.0170 nd         1 H3H      -0.528800
     16 C16         -5.4990    -0.0570     0.1130 cc         1 H3H       0.260900
     17 C18         -3.8910     1.4560    -0.1260 cd         1 H3H      -0.116000
     18 C19         -0.7820    -1.3350     0.0430 ca         1 H3H       0.354800
     19 O1           0.1920    -3.3490     0.2420 os         1 H3H      -0.158200
     20 C3           3.5740     1.2720     0.0890 ca         1 H3H       0.151100
     21 O            4.8600     1.3970     0.5800 os         1 H3H      -0.357100
     22 C1           5.6120     0.3000     1.1350 c3         1 H3H       0.180300
     23 C2           6.0440    -0.6360    -0.0170 c3         1 H3H      -0.107100
     24 C            6.8210     0.9180     1.8630 c3         1 H3H      -0.107100
     25 H1           3.6440     3.2550    -0.7620 ha         1 H3H       0.125000
     26 H2           1.3320     3.1510    -1.6830 ha         1 H3H       0.112000
     27 H3          -0.0440     1.1180    -1.3570 ha         1 H3H       0.135000
     28 H4           3.1690    -0.7230     0.8510 ha         1 H3H       0.111000
     29 H5           2.2290    -2.7880     0.0810 h4         1 H3H       0.241000
     30 H6          -2.4750    -4.2650     0.4580 ha         1 H3H       0.135000
     31 H7          -4.3610    -2.5820     0.3480 ha         1 H3H       0.127000
     32 H8          -6.0440     3.7850     0.6090 h1         1 H3H       0.057700
     33 H9          -4.5760     4.0250    -0.3830 h1         1 H3H       0.057700
     34 H10         -6.1220     3.5870    -1.1680 h1         1 H3H       0.057700
     35 H11         -6.0440    -0.9830     0.2400 h4         1 H3H       0.037100
     36 H12         -2.9800     2.0350    -0.2310 h4         1 H3H       0.168000
     37 H13          5.0210    -0.2560     1.8730 h1         1 H3H       0.041700
     38 H14          5.1770    -1.0900    -0.5090 hc         1 H3H       0.046033
     39 H15          6.6180    -0.0850    -0.7710 hc         1 H3H       0.046033
     40 H16          6.6740    -1.4470     0.3670 hc         1 H3H       0.046033
     41 H17          6.4850     1.5840     2.6660 hc         1 H3H       0.046033
     42 H18          7.4420     0.1330     2.3100 hc         1 H3H       0.046033
     43 H19          7.4420     1.4960     1.1690 hc         1 H3H       0.046033
     44 C17         -5.4980     3.4420    -0.2780 c3         1 H3H       0.071900
@<TRIPOS>BOND
     1     1     2 ar  
     2     1    20 ar  
     3     1    25 1   
     4     2     3 ar  
     5     2    26 1   
     6     3     5 ar  
     7     3    27 1   
     8     4    15 1   
     9     4    17 1   
    10     4    44 1   
    11     5     6 ar  
    12     5     8 1   
    13     6    20 ar  
    14     6    28 1   
    15     7    13 ar  
    16     7    18 ar  
    17     8     9 2   
    18     8    18 1   
    19     9    19 1   
    20     9    29 1   
    21    10    11 ar  
    22    10    18 ar  
    23    10    19 1   
    24    11    12 ar  
    25    11    30 1   
    26    12    13 ar  
    27    12    31 1   
    28    13    14 1   
    29    14    16 1   
    30    14    17 2   
    31    15    16 2   
    32    16    35 1   
    33    17    36 1   
    34    20    21 1   
    35    21    22 1   
    36    22    23 1   
    37    22    24 1   
    38    22    37 1   
    39    23    38 1   
    40    23    39 1   
    41    23    40 1   
    42    24    41 1   
    43    24    42 1   
    44    24    43 1   
    45    32    44 1   
    46    33    44 1   
    47    34    44 1   
@<TRIPOS>SUBSTRUCTURE
     1 H3H         1 TEMP              0 ****  ****    0 ROOT
