@<TRIPOS>MOLECULE
H3I
   61    65     1     0     0
SMALL
No Charge or Current Charge


@<TRIPOS>ATOM
      1 N1           9.0160   -14.7660   -11.6360 nb         1 H3I      -0.307000
      2 N3           9.3210   -16.8900   -10.5100 nb         1 H3I      -0.212000
      3 C4           9.8020   -17.4040   -11.6590 ca         1 H3I       0.136500
      4 C5           9.9070   -16.6590   -12.8070 ca         1 H3I      -0.101600
      5 C6           9.4950   -15.3120   -12.7650 ca         1 H3I       0.449900
      6 C8          10.6440   -18.6120   -13.3320 cc         1 H3I       0.412700
      7 N           18.4330   -22.8700   -10.0320 n8         1 H3I      -0.998200
      8 CA          17.0630   -23.3940    -9.6870 c3         1 H3I       0.028500
      9 C           16.9760   -24.9210    -9.2450 c          1 H3I       0.722000
     10 O           17.1530   -25.7960   -10.0840 o          1 H3I      -0.727000
     11 CB          16.0650   -23.0580   -10.8290 c3         1 H3I      -0.058400
     12 OXT         16.7800   -25.1650    -8.0610 o          1 H3I      -0.727000
     13 C2           8.9510   -15.5880   -10.5590 ca         1 H3I       0.179900
     14 CAL         10.1950   -23.5260   -16.2840 ca         1 H3I       0.135900
     15 CAN         12.1790   -27.3880   -15.4890 cc         1 H3I       0.436700
     16 CAQ         14.5970   -23.3950   -10.4830 c3         1 H3I       0.101000
     17 CAR         13.1640   -21.5460   -11.4600 c3         1 H3I       0.086000
     18 CBC         13.2210   -23.8690   -12.5330 c          1 H3I       0.675100
     19 CBE         11.6790   -23.9360   -14.5730 ca         1 H3I       0.303900
     20 CBG         11.7680   -25.2570   -15.0530 ca         1 H3I      -0.214200
     21 CBI         11.0480   -25.6470   -16.1510 ca         1 H3I       0.233000
     22 CBL         10.7120   -22.1060   -10.6240 c5         1 H3I       0.149300
     23 CBN         10.0520   -21.2200   -11.7320 c5         1 H3I       0.140300
     24 CBP         12.0370   -21.2900   -10.4180 c5         1 H3I       0.103300
     25 CBR         10.3180   -19.8130   -11.1020 c5         1 H3I       0.270300
     26 N6           9.5620   -14.4890   -13.8450 nv         1 H3I      -1.067900
     27 N7          10.4350   -17.3970   -13.8720 nd         1 H3I      -0.555100
     28 N9          10.2640   -18.6470   -11.9850 na         1 H3I      -0.293300
     29 NAT         10.8740   -23.0590   -15.2060 nb         1 H3I      -0.287000
     30 NAV         10.2400   -24.7810   -16.7930 nb         1 H3I      -0.147000
     31 NAX         12.4790   -26.3410   -14.6320 na         1 H3I      -0.258600
     32 NAY         12.3380   -23.3630   -13.4650 ns         1 H3I      -0.343900
     33 NBU         11.2990   -26.9910   -16.4350 nd         1 H3I      -0.664700
     34 OAD         13.6200   -25.0230   -12.5480 o          1 H3I      -0.621100
     35 OAH          9.9350   -22.1630    -9.4090 oh         1 H3I      -0.693000
     36 OAJ          8.6640   -21.5240   -11.9750 oh         1 H3I      -0.672000
     37 OBA         11.6370   -19.8950   -10.5070 os         1 H3I      -0.447000
     38 H81         11.0550   -19.4730   -13.8470 h5         1 H3I       0.067800
     39 HA          16.7470   -22.8020    -8.8170 h1         1 H3I      -0.011300
     40 HB3         16.1370   -21.9890   -11.0630 hc         1 H3I       0.032200
     41 HB2         16.3490   -23.6020   -11.7380 hc         1 H3I       0.032200
     42 H21          8.5630   -15.1570    -9.6380 h5         1 H3I       0.044100
     43 HAL1         9.5460   -22.8170   -16.7950 h5         1 H3I       0.042100
     44 HAN1        12.6130   -28.3760   -15.3790 h5         1 H3I       0.067800
     45 HAQ2        14.3370   -22.9000    -9.5380 h1         1 H3I       0.074200
     46 HAQ1        14.4950   -24.4740   -10.3110 h1         1 H3I       0.074200
     47 HAR1        12.8540   -21.1830   -12.4470 h1         1 H3I       0.059200
     48 HAR2        14.0180   -20.9180   -11.1750 h1         1 H3I       0.059200
     49 HBL1        10.9110   -23.1200   -10.9990 h1         1 H3I       0.073700
     50 HBN1        10.6090   -21.3270   -12.6720 h1         1 H3I       0.040700
     51 HBP1        12.4560   -21.4740    -9.4200 h1         1 H3I       0.091700
     52 HBR1         9.5800   -19.6370   -10.3080 h2         1 H3I       0.124700
     53 H61          9.5380   -13.4860   -13.6820 hn         1 H3I       0.505000
     54 H62         10.1180   -14.8090   -14.6340 hn         1 H3I       0.505000
     55 H4          13.1120   -26.3720   -13.8350 hn         1 H3I       0.410000
     56 HAY1        12.1150   -22.3880   -13.3390 hn         1 H3I       0.162000
     57 HAH1        10.2610   -22.9320    -8.8850 ho         1 H3I       0.513000
     58 HAJ1         8.3340   -20.8950   -12.6590 ho         1 H3I       0.512000
     59 H2          18.3810   -21.8550   -10.1830 hn         1 H3I       0.384500
     60 NBS         13.6400   -22.9590   -11.5320 n          1 H3I      -0.416800
     61 H           19.0460   -22.9640    -9.2130 hn         1 H3I       0.384500
@<TRIPOS>BOND
     1     1     5 ar  
     2     1    13 ar  
     3     2     3 ar  
     4     2    13 ar  
     5     3     4 ar  
     6     3    28 1   
     7     4     5 ar  
     8     4    27 1   
     9     5    26 1   
    10     6    27 2   
    11     6    28 1   
    12     6    38 1   
    13     7     8 1   
    14     7    59 1   
    15     7    61 1   
    16     8     9 1   
    17     8    11 1   
    18     8    39 1   
    19     9    10 1   
    20     9    12 1   
    21    11    16 1   
    22    11    40 1   
    23    11    41 1   
    24    13    42 1   
    25    14    29 ar  
    26    14    30 ar  
    27    14    43 1   
    28    15    31 1   
    29    15    33 2   
    30    15    44 1   
    31    16    45 1   
    32    16    46 1   
    33    16    60 1   
    34    17    24 1   
    35    17    47 1   
    36    17    48 1   
    37    17    60 1   
    38    18    32 1   
    39    18    34 2   
    40    18    60 1   
    41    19    20 ar  
    42    19    29 ar  
    43    19    32 1   
    44    20    21 ar  
    45    20    31 1   
    46    21    30 ar  
    47    21    33 1   
    48    22    23 1   
    49    22    24 1   
    50    22    35 1   
    51    22    49 1   
    52    23    25 1   
    53    23    36 1   
    54    23    50 1   
    55    24    37 1   
    56    24    51 1   
    57    25    28 1   
    58    25    37 1   
    59    25    52 1   
    60    26    53 1   
    61    26    54 1   
    62    31    55 1   
    63    32    56 1   
    64    35    57 1   
    65    36    58 1   
@<TRIPOS>SUBSTRUCTURE
     1 H3I         1 TEMP              0 ****  ****    0 ROOT
