@<TRIPOS>MOLECULE
H3I
   61    65     1     0     0
SMALL
abcg2


@<TRIPOS>ATOM
      1 N1           8.8420   -14.8180   -11.4500 nb         1 H3I      -0.307000
      2 N3           8.9480   -17.0110   -10.5090 nb         1 H3I      -0.212000
      3 C4           9.8230   -17.2790   -11.4750 ca         1 H3I       0.136500
      4 C5          10.2610   -16.4020   -12.4540 ca         1 H3I      -0.101600
      5 C6           9.7240   -15.1020   -12.4160 ca         1 H3I       0.449900
      6 C8          11.2690   -18.2180   -12.8220 cc         1 H3I       0.412700
      7 N           18.0570   -22.3930   -10.2400 n8         1 H3I      -0.998200
      8 CA          16.8770   -23.1650    -9.8740 c3         1 H3I       0.028500
      9 C           17.2760   -24.6130    -9.4920 c          1 H3I       0.722000
     10 O           16.3860   -25.4830    -9.5680 o          1 H3I      -0.727000
     11 CB          15.8580   -23.0830   -11.0130 c3         1 H3I      -0.058400
     12 OXT         18.4460   -24.7840    -9.0950 o          1 H3I      -0.727000
     13 C2           8.5140   -15.7640   -10.5750 ca         1 H3I       0.179900
     14 CAL         10.5790   -24.1260   -16.5840 ca         1 H3I       0.135900
     15 CAN         12.1260   -27.8080   -15.0360 cc         1 H3I       0.436700
     16 CAQ         14.4260   -23.3990   -10.6010 c3         1 H3I       0.101000
     17 CAR         13.0000   -21.6560   -11.5990 c3         1 H3I       0.086000
     18 CBC         13.1770   -23.9470   -12.5920 c          1 H3I       0.675100
     19 CBE         11.8290   -24.2740   -14.6550 ca         1 H3I       0.303900
     20 CBG         11.9090   -25.6480   -14.8850 ca         1 H3I      -0.214200
     21 CBI         11.2570   -26.1580   -16.0240 ca         1 H3I       0.233000
     22 CBL         10.4950   -22.0290   -10.9970 c5         1 H3I       0.149300
     23 CBN          9.8920   -20.8790   -11.7880 c5         1 H3I       0.140300
     24 CBP         11.8530   -21.4350   -10.6070 c5         1 H3I       0.103300
     25 CBR         10.3740   -19.6730   -10.9670 c5         1 H3I       0.270300
     26 N6          10.0520   -14.1600   -13.3010 nv         1 H3I      -1.067900
     27 N7          11.1680   -17.0090   -13.2840 nd         1 H3I      -0.555100
     28 N9          10.4790   -18.4520   -11.7260 na         1 H3I      -0.293300
     29 NAT         11.1530   -23.5420   -15.5340 nb         1 H3I      -0.287000
     30 NAV         10.5820   -25.4040   -16.8930 nb         1 H3I      -0.147000
     31 NAX         12.4500   -26.7470   -14.2800 na         1 H3I      -0.258600
     32 NAY         12.3330   -23.5400   -13.6070 ns         1 H3I      -0.343900
     33 NBU         11.4100   -27.5070   -16.0910 nd         1 H3I      -0.664700
     34 OAD         13.6390   -25.0790   -12.5670 o          1 H3I      -0.621100
     35 OAH          9.6870   -22.2540    -9.8720 oh         1 H3I      -0.693000
     36 OAJ          8.5100   -20.9710   -11.9110 oh         1 H3I      -0.672000
     37 OBA         11.6390   -20.0290   -10.4770 os         1 H3I      -0.447000
     38 H81         11.9080   -18.9850   -13.2340 h5         1 H3I       0.067800
     39 HA          16.3850   -22.7540    -8.9710 h1         1 H3I      -0.011300
     40 HB3         15.8770   -22.0590   -11.4010 hc         1 H3I       0.032200
     41 HB2         16.1600   -23.7300   -11.8410 hc         1 H3I       0.032200
     42 H21          7.7950   -15.4680    -9.8180 h5         1 H3I       0.044100
     43 HAL1        10.0470   -23.4600   -17.2550 h5         1 H3I       0.042100
     44 HAN1        12.4450   -28.8050   -14.7680 h5         1 H3I       0.067800
     45 HAQ2        14.1690   -22.8320    -9.7030 h1         1 H3I       0.074200
     46 HAQ1        14.3160   -24.4470   -10.3500 h1         1 H3I       0.074200
     47 HAR1        12.7480   -21.2750   -12.5890 h1         1 H3I       0.059200
     48 HAR2        13.8400   -21.0350   -11.2800 h1         1 H3I       0.059200
     49 HBL1        10.6000   -22.9370   -11.6040 h1         1 H3I       0.073700
     50 HBN1        10.3810   -20.8560   -12.7720 h1         1 H3I       0.040700
     51 HBP1        12.1620   -21.8300    -9.6330 h1         1 H3I       0.091700
     52 HBR1         9.6710   -19.4650   -10.1540 h2         1 H3I       0.124700
     53 H61          9.6790   -13.2300   -13.2120 hn         1 H3I       0.505000
     54 H62         10.7450   -14.3300   -14.0080 hn         1 H3I       0.505000
     55 H4          13.0210   -26.7140   -13.4470 hn         1 H3I       0.410000
     56 HAY1        12.0800   -22.5680   -13.6930 hn         1 H3I       0.162000
     57 HAH1        10.0710   -22.9720    -9.3570 ho         1 H3I       0.513000
     58 HAJ1         8.2190   -20.3490   -12.5850 ho         1 H3I       0.512000
     59 H2          17.8660   -21.4060   -10.1290 hn         1 H3I       0.384500
     60 NBS         13.4560   -23.0320   -11.6350 n          1 H3I      -0.416800
     61 H           18.7990   -22.6250    -9.5930 hn         1 H3I       0.384500
@<TRIPOS>BOND
     1     1     5 ar  
     2     1    13 ar  
     3     2     3 ar  
     4     2    13 ar  
     5     3     4 ar  
     6     3    28 1   
     7     4     5 ar  
     8     4    27 1   
     9     5    26 1   
    10     6    27 2   
    11     6    28 1   
    12     6    38 1   
    13     7     8 1   
    14     7    59 1   
    15     7    61 1   
    16     8     9 1   
    17     8    11 1   
    18     8    39 1   
    19     9    10 1   
    20     9    12 1   
    21    11    16 1   
    22    11    40 1   
    23    11    41 1   
    24    13    42 1   
    25    14    29 ar  
    26    14    30 ar  
    27    14    43 1   
    28    15    31 1   
    29    15    33 2   
    30    15    44 1   
    31    16    45 1   
    32    16    46 1   
    33    16    60 1   
    34    17    24 1   
    35    17    47 1   
    36    17    48 1   
    37    17    60 1   
    38    18    32 1   
    39    18    34 2   
    40    18    60 1   
    41    19    20 ar  
    42    19    29 ar  
    43    19    32 1   
    44    20    21 ar  
    45    20    31 1   
    46    21    30 ar  
    47    21    33 1   
    48    22    23 1   
    49    22    24 1   
    50    22    35 1   
    51    22    49 1   
    52    23    25 1   
    53    23    36 1   
    54    23    50 1   
    55    24    37 1   
    56    24    51 1   
    57    25    28 1   
    58    25    37 1   
    59    25    52 1   
    60    26    53 1   
    61    26    54 1   
    62    31    55 1   
    63    32    56 1   
    64    35    57 1   
    65    36    58 1   
@<TRIPOS>SUBSTRUCTURE
     1 H3I         1 TEMP              0 ****  ****    0 ROOT
