@<TRIPOS>MOLECULE
H3K
   43    45     1     0     0
SMALL
No Charge or Current Charge


@<TRIPOS>ATOM
      1 N6          -8.2880    -2.3500    -0.2800 n1         1 H3K      -0.430000
      2 C17         -7.1380    -2.1580    -0.1860 cg         1 H3K       0.230000
      3 C15         -5.7230    -1.9110    -0.0780 ca         1 H3K       0.321000
      4 N4          -4.9800    -2.7580     0.6990 nb         1 H3K      -0.573000
      5 C14         -3.6490    -2.4730     0.7610 ca         1 H3K       0.236900
      6 C16         -5.1370    -0.8190    -0.7740 ca         1 H3K       0.381900
      7 N5          -3.8030    -0.5370    -0.7120 nb         1 H3K      -0.657000
      8 C13         -3.0720    -1.3610     0.0820 ca         1 H3K       0.475900
      9 N3          -1.6880    -1.1160     0.0990 ns         1 H3K      -0.334900
     10 C12         -1.0040     0.0780     0.0870 c          1 H3K       0.673100
     11 O2          -1.5460     1.1750     0.1290 o          1 H3K      -0.549100
     12 N2           0.3630    -0.1200     0.0440 ns         1 H3K      -0.161000
     13 C11          1.4710     0.7720     0.0350 ca         1 H3K       0.014000
     14 C10          1.3380     2.1740     0.1680 ca         1 H3K      -0.115000
     15 C9           2.4760     2.9950     0.1700 ca         1 H3K       0.011100
     16 Br           2.2830     4.8890     0.3520 br         1 H3K      -0.087100
     17 C8           3.7550     2.4340     0.0430 ca         1 H3K      -0.109000
     18 C7           3.8960     1.0440    -0.0870 ca         1 H3K      -0.100000
     19 C6           2.7640     0.2060    -0.0930 ca         1 H3K       0.175000
     20 N1           2.9190    -1.1950    -0.2350 nh         1 H3K      -0.799400
     21 C4           2.7130    -1.8140    -1.5730 c6         1 H3K       0.177800
     22 C3           2.3150    -3.3050    -1.4380 c6         1 H3K      -0.074400
     23 C2           3.3580    -4.0960    -0.6100 c6         1 H3K      -0.116400
     24 C5           3.9270    -1.9190     0.6020 c6         1 H3K       0.178800
     25 C1           3.5690    -3.4310     0.7720 c6         1 H3K       0.169300
     26 O1           4.5970    -4.1260     1.4920 oh         1 H3K      -0.655000
     27 H16         -3.0340    -3.1400     1.3630 h4         1 H3K       0.032100
     28 H17         -5.7440    -0.1620    -1.3960 h4         1 H3K       0.047100
     29 H15         -1.1170    -1.9490     0.1310 hn         1 H3K       0.159000
     30 H14          0.6470    -1.0900     0.0100 hn         1 H3K       0.183000
     31 H13          0.3660     2.6440     0.2760 ha         1 H3K       0.167000
     32 H12          4.6350     3.0740     0.0440 ha         1 H3K       0.134000
     33 H11          4.8890     0.6160    -0.1950 ha         1 H3K       0.120000
     34 H7           1.9220    -1.2830    -2.1240 h1         1 H3K       0.043700
     35 H8           3.6350    -1.7360    -2.1680 h1         1 H3K       0.043700
     36 H6           1.3280    -3.3780    -0.9590 hc         1 H3K       0.049200
     37 H5           2.2110    -3.7510    -2.4360 hc         1 H3K       0.049200
     38 H4           3.0230    -5.1350    -0.4850 hc         1 H3K       0.050200
     39 H3           4.3100    -4.1320    -1.1570 hc         1 H3K       0.050200
     40 H10          4.9240    -1.8370     0.1440 h1         1 H3K       0.054700
     41 H9           3.9860    -1.4610     1.6000 h1         1 H3K       0.054700
     42 H1           2.6240    -3.4910     1.3310 h1         1 H3K       0.029700
     43 H2           4.2840    -5.0510     1.6040 ho         1 H3K       0.448000
@<TRIPOS>BOND
     1     1     2 3   
     2     2     3 1   
     3     3     4 ar  
     4     3     6 ar  
     5     4     5 ar  
     6     5     8 ar  
     7     5    27 1   
     8     6     7 ar  
     9     6    28 1   
    10     7     8 ar  
    11     8     9 1   
    12     9    10 1   
    13     9    29 1   
    14    10    11 2   
    15    10    12 1   
    16    12    13 1   
    17    12    30 1   
    18    13    14 ar  
    19    13    19 ar  
    20    14    15 ar  
    21    14    31 1   
    22    15    16 1   
    23    15    17 ar  
    24    17    18 ar  
    25    17    32 1   
    26    18    19 ar  
    27    18    33 1   
    28    19    20 1   
    29    20    21 1   
    30    20    24 1   
    31    21    22 1   
    32    21    34 1   
    33    21    35 1   
    34    22    23 1   
    35    22    36 1   
    36    22    37 1   
    37    23    25 1   
    38    23    38 1   
    39    23    39 1   
    40    24    25 1   
    41    24    40 1   
    42    24    41 1   
    43    25    26 1   
    44    25    42 1   
    45    26    43 1   
@<TRIPOS>SUBSTRUCTURE
     1 H3K         1 TEMP              0 ****  ****    0 ROOT
