@<TRIPOS>MOLECULE
H3K
   43    45     1     0     0
SMALL
abcg2


@<TRIPOS>ATOM
      1 N6          -8.2210    -2.2340    -0.0020 n1         1 H3K      -0.430000
      2 C17         -7.0850    -2.0510     0.0440 cg         1 H3K       0.230000
      3 C15         -5.6780    -1.8080     0.0950 ca         1 H3K       0.321000
      4 N4          -4.8920    -2.8100     0.5060 nb         1 H3K      -0.573000
      5 C14         -3.6090    -2.5780     0.5560 ca         1 H3K       0.236900
      6 C16         -5.1530    -0.5800    -0.2700 ca         1 H3K       0.381900
      7 N5          -3.8520    -0.3410    -0.2260 nb         1 H3K      -0.657000
      8 C13         -3.0700    -1.3210     0.1890 ca         1 H3K       0.475900
      9 N3          -1.7130    -1.1680     0.2500 ns         1 H3K      -0.334900
     10 C12         -0.9940     0.0190     0.1550 c          1 H3K       0.673100
     11 O2          -1.5040     1.1170     0.1790 o          1 H3K      -0.549100
     12 N2           0.3390    -0.2230     0.0510 ns         1 H3K      -0.161000
     13 C11          1.3830     0.6880    -0.0230 ca         1 H3K       0.014000
     14 C10          1.2560     2.0710     0.1060 ca         1 H3K      -0.115000
     15 C9           2.3970     2.8550     0.0140 ca         1 H3K       0.011100
     16 BR           2.2150     4.7280     0.1880 br         1 H3K      -0.087100
     17 C8           3.6530     2.3180    -0.2030 ca         1 H3K      -0.109000
     18 C7           3.7630     0.9390    -0.3250 ca         1 H3K      -0.100000
     19 C6           2.6520     0.1190    -0.2370 ca         1 H3K       0.175000
     20 N1           2.7180    -1.2950    -0.3530 nh         1 H3K      -0.799400
     21 C4           3.1810    -1.7670    -1.6560 c6         1 H3K       0.177800
     22 C3           2.9600    -3.2650    -1.7710 c6         1 H3K      -0.074400
     23 C2           3.6290    -4.0020    -0.6170 c6         1 H3K      -0.116400
     24 C5           3.4030    -1.9380     0.7630 c6         1 H3K       0.178800
     25 C1           3.1610    -3.4390     0.7170 c6         1 H3K       0.169300
     26 O1           3.8440    -4.0010     1.8160 oh         1 H3K      -0.655000
     27 H16         -2.9620    -3.3820     0.8890 h4         1 H3K       0.032100
     28 H17         -5.7950     0.2240    -0.6100 h4         1 H3K       0.047100
     29 H15         -1.1950    -2.0090     0.4550 hn         1 H3K       0.159000
     30 H14          0.6870    -1.1720    -0.0770 hn         1 H3K       0.183000
     31 H13          0.2920     2.5230     0.2740 ha         1 H3K       0.167000
     32 H12          4.5320     2.9430    -0.2750 ha         1 H3K       0.134000
     33 H11          4.7400     0.5030    -0.4940 ha         1 H3K       0.120000
     34 H7           2.6240    -1.2400    -2.4320 h1         1 H3K       0.043700
     35 H8           4.2470    -1.5370    -1.8100 h1         1 H3K       0.043700
     36 H6           1.8850    -3.4690    -1.7760 hc         1 H3K       0.049200
     37 H5           3.3550    -3.6160    -2.7260 hc         1 H3K       0.049200
     38 H4           3.4160    -5.0730    -0.6740 hc         1 H3K       0.050200
     39 H3           4.7170    -3.8870    -0.6870 hc         1 H3K       0.050200
     40 H10          4.4870    -1.7430     0.7450 h1         1 H3K       0.054700
     41 H9           3.0120    -1.5250     1.6960 h1         1 H3K       0.054700
     42 H1           2.0760    -3.6050     0.8070 h1         1 H3K       0.029700
     43 H2           3.7040    -4.9530     1.8010 ho         1 H3K       0.448000
@<TRIPOS>BOND
     1     1     2 3   
     2     2     3 1   
     3     3     4 ar  
     4     3     6 ar  
     5     4     5 ar  
     6     5     8 ar  
     7     5    27 1   
     8     6     7 ar  
     9     6    28 1   
    10     7     8 ar  
    11     8     9 1   
    12     9    10 1   
    13     9    29 1   
    14    10    11 2   
    15    10    12 1   
    16    12    13 1   
    17    12    30 1   
    18    13    14 ar  
    19    13    19 ar  
    20    14    15 ar  
    21    14    31 1   
    22    15    16 1   
    23    15    17 ar  
    24    17    18 ar  
    25    17    32 1   
    26    18    19 ar  
    27    18    33 1   
    28    19    20 1   
    29    20    21 1   
    30    20    24 1   
    31    21    22 1   
    32    21    34 1   
    33    21    35 1   
    34    22    23 1   
    35    22    36 1   
    36    22    37 1   
    37    23    25 1   
    38    23    38 1   
    39    23    39 1   
    40    24    25 1   
    41    24    40 1   
    42    24    41 1   
    43    25    26 1   
    44    25    42 1   
    45    26    43 1   
@<TRIPOS>SUBSTRUCTURE
     1 H3K         1 TEMP              0 ****  ****    0 ROOT
