@<TRIPOS>MOLECULE
H3L
   19    19     1     0     0
SMALL
No Charge or Current Charge


@<TRIPOS>ATOM
      1 C2          -8.7680    20.2370    40.9660 c3         1 H3L       0.147200
      2 C6          -6.5500    18.2680    38.9030 cc         1 H3L       0.514900
      3 C1          -8.0740    20.6610    42.2760 c3         1 H3L      -0.093100
      4 C4          -7.7730    19.6020    39.9740 cd         1 H3L       0.413800
      5 N3          -9.9580    19.3910    41.2830 n8         1 H3L      -0.975200
      6 N5          -7.4650    18.3170    39.9130 nc         1 H3L      -0.669000
      7 N7          -6.2430    19.4130    38.3150 nd         1 H3L      -0.541800
      8 N8          -7.0370    20.2860    39.0120 na         1 H3L      -0.063700
      9 H1          -9.1600    21.1470    40.4940 h1         1 H3L       0.015700
     10 H2          -6.1180    17.3120    38.6280 h5         1 H3L       0.063100
     11 H3          -8.7770    21.1680    42.9470 hc         1 H3L       0.047033
     12 H4          -7.6610    19.7900    42.7990 hc         1 H3L       0.047033
     13 H5          -7.2500    21.3530    42.0650 hc         1 H3L       0.047033
     14 H6          -6.3070    21.9660    37.9490 h1         1 H3L       0.058367
     15 H7          -8.0440    22.0260    38.3690 h1         1 H3L       0.058367
     16 H8          -6.8060    22.2900    39.6340 h1         1 H3L       0.058367
     17 H9         -10.6320    19.9450    41.8250 hn         1 H3L       0.401000
     18 H10        -10.4620    19.1770    40.4140 hn         1 H3L       0.401000
     19 C9          -7.0480    21.7300    38.7230 c3         1 H3L       0.068900
@<TRIPOS>BOND
     1     1     3 1   
     2     1     4 1   
     3     1     5 1   
     4     1     9 1   
     5     2     6 1   
     6     2     7 2   
     7     2    10 1   
     8     3    11 1   
     9     3    12 1   
    10     3    13 1   
    11     4     6 2   
    12     4     8 1   
    13     5    17 1   
    14     5    18 1   
    15     7     8 1   
    16     8    19 1   
    17    14    19 1   
    18    15    19 1   
    19    16    19 1   
@<TRIPOS>SUBSTRUCTURE
     1 H3L         1 TEMP              0 ****  ****    0 ROOT
