@<TRIPOS>MOLECULE
H3L
   19    19     1     0     0
SMALL
abcg2


@<TRIPOS>ATOM
      1 C2          -8.8010    20.2780    40.9010 c3         1 H3L       0.147200
      2 C6          -6.6020    18.2720    38.9460 cc         1 H3L       0.514900
      3 C1          -8.0810    20.7050    42.1780 c3         1 H3L      -0.093100
      4 C4          -7.8330    19.6150    39.9680 cd         1 H3L       0.413800
      5 N3          -9.8650    19.3480    41.2330 n8         1 H3L      -0.975200
      6 N5          -7.5510    18.3290    39.9010 nc         1 H3L      -0.669000
      7 N7          -6.2830    19.4320    38.4250 nd         1 H3L      -0.541800
      8 N8          -7.0790    20.2830    39.0850 na         1 H3L      -0.063700
      9 H1          -9.1700    21.1880    40.4050 h1         1 H3L       0.015700
     10 H2          -6.1360    17.3540    38.6230 h5         1 H3L       0.063100
     11 H3          -8.7800    21.1970    42.8560 hc         1 H3L       0.047033
     12 H4          -7.6600    19.8370    42.6870 hc         1 H3L       0.047033
     13 H5          -7.2750    21.4080    41.9680 hc         1 H3L       0.047033
     14 H6          -6.3810    21.8660    37.9670 h1         1 H3L       0.058367
     15 H7          -8.0310    22.0730    38.5670 h1         1 H3L       0.058367
     16 H8          -6.6550    22.2520    39.6710 h1         1 H3L       0.058367
     17 H9         -10.4960    19.7990    41.8830 hn         1 H3L       0.401000
     18 H10        -10.4160    19.1410    40.4090 hn         1 H3L       0.401000
     19 C9          -7.0390    21.7020    38.8140 c3         1 H3L       0.068900
@<TRIPOS>BOND
     1     1     3 1   
     2     1     4 1   
     3     1     5 1   
     4     1     9 1   
     5     2     6 1   
     6     2     7 2   
     7     2    10 1   
     8     3    11 1   
     9     3    12 1   
    10     3    13 1   
    11     4     6 2   
    12     4     8 1   
    13     5    17 1   
    14     5    18 1   
    15     7     8 1   
    16     8    19 1   
    17    14    19 1   
    18    15    19 1   
    19    16    19 1   
@<TRIPOS>SUBSTRUCTURE
     1 H3L         1 TEMP              0 ****  ****    0 ROOT
