@<TRIPOS>MOLECULE
H3M
   14    14     1     0     0
SMALL
No Charge or Current Charge


@<TRIPOS>ATOM
      1 O1          -1.5180     1.6230    -0.0830 o          1 H3M      -0.476000
      2 C1          -0.6410     0.7760    -0.1680 c          1 H3M       0.653300
      3 C4          -0.7990    -0.6880    -0.0880 ce         1 H3M      -0.170400
      4 C5          -2.1410    -1.3480     0.1750 c3         1 H3M      -0.034900
      5 C3           0.3860    -1.2960    -0.2040 c2         1 H3M      -0.216200
      6 C2           1.4190    -0.2100    -0.4180 c5         1 H3M       0.413500
      7 O2           0.6870     1.0350    -0.3570 os         1 H3M      -0.458100
      8 O3           2.3560    -0.2230     0.6350 oh         1 H3M      -0.631000
      9 H2          -2.7500    -0.7580     0.8710 hc         1 H3M       0.056367
     10 H3          -2.7130    -1.4600    -0.7540 hc         1 H3M       0.056367
     11 H4          -2.0180    -2.3460     0.6120 hc         1 H3M       0.056367
     12 H5           0.5760    -2.3680    -0.1550 ha         1 H3M       0.216000
     13 H7           1.9310    -0.2940    -1.3870 h2         1 H3M       0.068700
     14 H8           2.8400     0.6250     0.5500 ho         1 H3M       0.467000
@<TRIPOS>BOND
     1     1     2 2   
     2     2     3 1   
     3     2     7 1   
     4     3     4 1   
     5     3     5 2   
     6     4     9 1   
     7     4    10 1   
     8     4    11 1   
     9     5     6 1   
    10     5    12 1   
    11     6     7 1   
    12     6     8 1   
    13     6    13 1   
    14     8    14 1   
@<TRIPOS>SUBSTRUCTURE
     1 H3M         1 TEMP              0 ****  ****    0 ROOT
