@<TRIPOS>MOLECULE
H3M
   14    14     1     0     0
SMALL
bcc


@<TRIPOS>ATOM
      1 O1          -1.5530     1.5770    -0.2720 o          1 H3M      -0.551500
      2 C1          -0.6910     0.7410    -0.2400 c          1 H3M       0.728800
      3 C4          -0.8310    -0.7200    -0.0440 ce         1 H3M      -0.170400
      4 C5          -2.1510    -1.3620     0.1650 c3         1 H3M      -0.034900
      5 C3           0.3910    -1.2360    -0.0950 c2         1 H3M      -0.166200
      6 C2           1.3990    -0.1560    -0.3360 c5         1 H3M       0.367100
      7 O2           0.6060     1.0390    -0.3980 os         1 H3M      -0.434900
      8 O3           2.3060    -0.0970     0.6920 oh         1 H3M      -0.568800
      9 H2          -2.6440    -0.9580     1.0510 hc         1 H3M       0.056367
     10 H3          -2.8130    -1.1770    -0.6820 hc         1 H3M       0.056367
     11 H4          -2.0490    -2.4380     0.2910 hc         1 H3M       0.056367
     12 H5           0.6720    -2.2750     0.0040 ha         1 H3M       0.166000
     13 H7           1.8840    -0.2590    -1.3120 h2         1 H3M       0.068700
     14 H8           3.0890     0.3870     0.4060 ho         1 H3M       0.428000
@<TRIPOS>BOND
     1     1     2 2   
     2     2     3 1   
     3     2     7 1   
     4     3     4 1   
     5     3     5 2   
     6     4     9 1   
     7     4    10 1   
     8     4    11 1   
     9     5     6 1   
    10     5    12 1   
    11     6     7 1   
    12     6     8 1   
    13     6    13 1   
    14     8    14 1   
@<TRIPOS>SUBSTRUCTURE
     1 H3M         1 TEMP              0 ****  ****    0 ROOT
