@<TRIPOS>MOLECULE
H3N
   45    49     1     0     0
SMALL
No Charge or Current Charge


@<TRIPOS>ATOM
      1 C11         -0.4900    -0.0510     1.2860 ca         1 H3N      -0.098000
      2 C12         -1.5710     0.7110     1.7610 ca         1 H3N      -0.098000
      3 C14         -3.0750    -0.5190     0.2980 ca         1 H3N       0.110100
      4 C17         -7.5740     0.9550    -0.4770 ca         1 H3N      -0.085500
      5 N            5.0630     2.8370     0.8150 na         1 H3N       0.132800
      6 N1           6.2700     2.2890     0.4380 nc         1 H3N      -0.526800
      7 C3           5.9330     1.0730     0.0540 cd         1 H3N       0.260900
      8 C2           4.5480     0.8220     0.1710 cd         1 H3N      -0.281500
      9 C1           3.9860     1.9700     0.6660 cc         1 H3N      -0.117000
     10 C4           3.8450    -0.4250    -0.1690 ca         1 H3N       0.453500
     11 N2           2.5010    -0.4210     0.0400 nb         1 H3N      -0.652000
     12 C22          1.8550    -1.5630    -0.2650 ca         1 H3N       0.354800
     13 C7           2.4610    -2.6930    -0.7700 ca         1 H3N      -0.005900
     14 C6           3.8360    -2.7360    -1.0000 ca         1 H3N      -0.055000
     15 C5           4.5420    -1.5550    -0.6820 ca         1 H3N      -0.144000
     16 C9           0.4370    -1.8620    -0.1660 cc         1 H3N      -0.200000
     17 C8           0.2980    -3.1700    -0.6230 cd         1 H3N      -0.043900
     18 O            1.5290    -3.6640    -0.9870 os         1 H3N      -0.156200
     19 C10         -0.6900    -1.0610     0.3210 ca         1 H3N       0.006200
     20 C21         -1.9950    -1.2890    -0.1630 ca         1 H3N      -0.121000
     21 C13         -2.8660     0.4770     1.2710 ca         1 H3N      -0.143000
     22 O1          -4.3350    -0.7790    -0.1920 os         1 H3N      -0.257200
     23 C15         -5.2540     0.2120    -0.4590 ca         1 H3N       0.125100
     24 C20         -4.8560     1.4430    -1.0170 ca         1 H3N      -0.148000
     25 C19         -5.8170     2.4320    -1.2940 ca         1 H3N      -0.085500
     26 C18         -7.1740     2.1880    -1.0220 ca         1 H3N      -0.134000
     27 C16         -6.6130    -0.0340    -0.2010 ca         1 H3N      -0.148000
     28 H1           0.5030     0.1360     1.6850 ha         1 H3N       0.140000
     29 H2          -1.4050     1.4810     2.5120 ha         1 H3N       0.114000
     30 H3          -8.6250     0.7650    -0.2720 ha         1 H3N       0.114000
     31 H4           5.6290     4.3070     2.2150 h1         1 H3N       0.057700
     32 H5           5.3760     4.9030     0.5460 h1         1 H3N       0.057700
     33 H6           3.9710     4.4790     1.5680 h1         1 H3N       0.057700
     34 H7           6.7080     0.4050    -0.3010 h4         1 H3N       0.037100
     35 H8           2.9650     2.2340     0.9140 h4         1 H3N       0.167000
     36 H9           4.3280    -3.6200    -1.3980 ha         1 H3N       0.136000
     37 H10          5.6150    -1.5170    -0.8350 ha         1 H3N       0.128000
     38 H11         -0.5650    -3.8250    -0.7170 h4         1 H3N       0.244000
     39 H12         -2.1790    -2.0540    -0.9120 ha         1 H3N       0.123000
     40 H13         -3.7010     1.0620     1.6480 ha         1 H3N       0.127000
     41 H14         -3.8090     1.6330    -1.2400 ha         1 H3N       0.127500
     42 H15         -5.5100     3.3850    -1.7220 ha         1 H3N       0.114000
     43 H16         -7.9180     2.9530    -1.2360 ha         1 H3N       0.115000
     44 H17         -6.9190    -0.9890     0.2180 ha         1 H3N       0.127500
     45 C            5.0060     4.2170     1.3170 c3         1 H3N       0.070900
@<TRIPOS>BOND
     1     1     2 ar  
     2     1    19 ar  
     3     1    28 1   
     4     2    21 ar  
     5     2    29 1   
     6     3    20 ar  
     7     3    21 ar  
     8     3    22 1   
     9     4    26 ar  
    10     4    27 ar  
    11     4    30 1   
    12     5     6 1   
    13     5     9 1   
    14     5    45 1   
    15     6     7 2   
    16     7     8 1   
    17     7    34 1   
    18     8     9 2   
    19     8    10 1   
    20     9    35 1   
    21    10    11 ar  
    22    10    15 ar  
    23    11    12 ar  
    24    12    13 ar  
    25    12    16 1   
    26    13    14 ar  
    27    13    18 1   
    28    14    15 ar  
    29    14    36 1   
    30    15    37 1   
    31    16    17 2   
    32    16    19 1   
    33    17    18 1   
    34    17    38 1   
    35    19    20 ar  
    36    20    39 1   
    37    21    40 1   
    38    22    23 1   
    39    23    24 ar  
    40    23    27 ar  
    41    24    25 ar  
    42    24    41 1   
    43    25    26 ar  
    44    25    42 1   
    45    26    43 1   
    46    27    44 1   
    47    31    45 1   
    48    32    45 1   
    49    33    45 1   
@<TRIPOS>SUBSTRUCTURE
     1 H3N         1 TEMP              0 ****  ****    0 ROOT
