@<TRIPOS>MOLECULE
H3N
   45    49     1     0     0
SMALL
abcg2


@<TRIPOS>ATOM
      1 C11         -0.4290     0.1180     1.1550 ca         1 H3N      -0.098000
      2 C12         -1.4620     0.8810     1.6800 ca         1 H3N      -0.098000
      3 C14         -3.0590    -0.4420     0.4980 ca         1 H3N       0.110100
      4 C17         -7.4840     0.9040    -0.4510 ca         1 H3N      -0.085500
      5 N            5.0180     2.7560     0.9390 na         1 H3N       0.132800
      6 N1           6.1930     2.2160     0.6280 nc         1 H3N      -0.526800
      7 C3           5.9150     1.0030     0.1970 cd         1 H3N       0.260900
      8 C2           4.5300     0.7470     0.2280 cd         1 H3N      -0.281500
      9 C1           3.9930     1.9210     0.7180 cc         1 H3N      -0.117000
     10 C4           3.7860    -0.4440    -0.1670 ca         1 H3N       0.453500
     11 N2           2.4750    -0.4220     0.0560 nb         1 H3N      -0.652000
     12 C22          1.7820    -1.4900    -0.3150 ca         1 H3N       0.354800
     13 C7           2.3670    -2.6060    -0.9110 ca         1 H3N      -0.005900
     14 C6           3.7230    -2.6580    -1.1520 ca         1 H3N      -0.055000
     15 C5           4.4360    -1.5390    -0.7630 ca         1 H3N      -0.144000
     16 C9           0.3660    -1.7790    -0.2400 cc         1 H3N      -0.200000
     17 C8           0.2470    -3.0140    -0.7880 cd         1 H3N      -0.043900
     18 O            1.4280    -3.5290    -1.1990 os         1 H3N      -0.156200
     19 C10         -0.7080    -0.9450     0.2970 ca         1 H3N       0.006200
     20 C21         -2.0390    -1.2070    -0.0370 ca         1 H3N      -0.121000
     21 C13         -2.7830     0.6090     1.3660 ca         1 H3N      -0.143000
     22 O1          -4.3450    -0.7870     0.1830 os         1 H3N      -0.257200
     23 C15         -5.2070     0.1710    -0.2710 ca         1 H3N       0.125100
     24 C20         -4.7890     1.2590    -1.0280 ca         1 H3N      -0.148000
     25 C19         -5.7320     2.1700    -1.4850 ca         1 H3N      -0.085500
     26 C18         -7.0800     2.0000    -1.2010 ca         1 H3N      -0.134000
     27 C16         -6.5530    -0.0100     0.0180 ca         1 H3N      -0.148000
     28 H1           0.5940     0.3510     1.4120 ha         1 H3N       0.140000
     29 H2          -1.2350     1.6990     2.3500 ha         1 H3N       0.114000
     30 H3          -8.5310     0.7590    -0.2220 ha         1 H3N       0.114000
     31 H4           5.6220     4.2440     2.2630 h1         1 H3N       0.057700
     32 H5           5.2400     4.8100     0.6260 h1         1 H3N       0.057700
     33 H6           3.9380     4.3330     1.7250 h1         1 H3N       0.057700
     34 H7           6.7180     0.3490    -0.1070 h4         1 H3N       0.037100
     35 H8           2.9710     2.1980     0.9120 h4         1 H3N       0.167000
     36 H9           4.2050    -3.5070    -1.6160 ha         1 H3N       0.136000
     37 H10          5.5030    -1.5110    -0.9340 ha         1 H3N       0.128000
     38 H11         -0.6110    -3.6490    -0.9390 h4         1 H3N       0.244000
     39 H12         -2.2950    -2.0100    -0.7170 ha         1 H3N       0.123000
     40 H13         -3.5810     1.2040     1.7890 ha         1 H3N       0.127000
     41 H14         -3.7440     1.4050    -1.2650 ha         1 H3N       0.127500
     42 H15         -5.4040     3.0170    -2.0710 ha         1 H3N       0.114000
     43 H16         -7.8070     2.7160    -1.5580 ha         1 H3N       0.115000
     44 H17         -6.8660    -0.8620     0.6080 ha         1 H3N       0.127500
     45 C            4.9550     4.1130     1.4140 c3         1 H3N       0.070900
@<TRIPOS>BOND
     1     1     2 ar  
     2     1    19 ar  
     3     1    28 1   
     4     2    21 ar  
     5     2    29 1   
     6     3    20 ar  
     7     3    21 ar  
     8     3    22 1   
     9     4    26 ar  
    10     4    27 ar  
    11     4    30 1   
    12     5     6 1   
    13     5     9 1   
    14     5    45 1   
    15     6     7 2   
    16     7     8 1   
    17     7    34 1   
    18     8     9 2   
    19     8    10 1   
    20     9    35 1   
    21    10    11 ar  
    22    10    15 ar  
    23    11    12 ar  
    24    12    13 ar  
    25    12    16 1   
    26    13    14 ar  
    27    13    18 1   
    28    14    15 ar  
    29    14    36 1   
    30    15    37 1   
    31    16    17 2   
    32    16    19 1   
    33    17    18 1   
    34    17    38 1   
    35    19    20 ar  
    36    20    39 1   
    37    21    40 1   
    38    22    23 1   
    39    23    24 ar  
    40    23    27 ar  
    41    24    25 ar  
    42    24    41 1   
    43    25    26 ar  
    44    25    42 1   
    45    26    43 1   
    46    27    44 1   
    47    31    45 1   
    48    32    45 1   
    49    33    45 1   
@<TRIPOS>SUBSTRUCTURE
     1 H3N         1 TEMP              0 ****  ****    0 ROOT
