@<TRIPOS>MOLECULE
H3P
   27    28     1     0     0
SMALL
abcg2


@<TRIPOS>ATOM
      1 OAA         -0.3070    -2.1100     0.0180 oh         1 H3P      -0.514100
      2 CAP         -1.3370    -1.2620     0.0130 ca         1 H3P       0.169100
      3 CAL         -2.4760    -1.4450     0.7950 ca         1 H3P       0.015500
      4 CLAC        -2.5620    -2.8260     1.8330 cl         1 H3P      -0.189000
      5 CAI         -3.5320    -0.5570     0.7470 ca         1 H3P      -0.045000
      6 CAN         -3.4560     0.5340    -0.0970 ca         1 H3P       0.077000
      7 CLAE        -4.7840     1.6310    -0.1580 cl         1 H3P      -0.166000
      8 CAR         -2.3220     0.7340    -0.8820 ca         1 H3P       0.172500
      9 CLAG        -2.2820     2.1000    -1.9280 cl         1 H3P      -0.156000
     10 CAT         -1.2470    -0.1490    -0.8320 ca         1 H3P      -0.090300
     11 CAK          0.0010     0.0140    -1.6630 c3         1 H3P       0.036200
     12 CAU          1.2520     0.1760    -0.8360 ca         1 H3P      -0.090300
     13 CAS          2.3280    -0.7060    -0.8920 ca         1 H3P       0.172500
     14 CLAH         2.2830    -2.0720    -1.9380 cl         1 H3P      -0.156000
     15 CAO          3.4670    -0.5030    -0.1160 ca         1 H3P       0.077000
     16 CLAF         4.7970    -1.5970    -0.1860 cl         1 H3P      -0.166000
     17 CAJ          3.5470     0.5890     0.7280 ca         1 H3P      -0.045000
     18 CAM          2.4900     1.4740     0.7830 ca         1 H3P       0.015500
     19 CLAD         2.5800     2.8570     1.8190 cl         1 H3P      -0.189000
     20 CAQ          1.3460     1.2880     0.0090 ca         1 H3P       0.169100
     21 OAB          0.3150     2.1350     0.0200 oh         1 H3P      -0.514100
     22 HOAA        -0.4610    -2.8500     0.6200 ho         1 H3P       0.483000
     23 HAI         -4.4080    -0.7160     1.3600 ha         1 H3P       0.147000
     24 HAK          0.0990    -0.8500    -2.3210 hc         1 H3P       0.076700
     25 HAKA        -0.0980     0.8780    -2.3190 hc         1 H3P       0.076700
     26 HAJ          4.4280     0.7500     1.3330 ha         1 H3P       0.147000
     27 HOAB         0.4640     2.8660     0.6340 ho         1 H3P       0.483000
@<TRIPOS>BOND
     1     1     2 1   
     2     1    22 1   
     3     2     3 ar  
     4     2    10 ar  
     5     3     4 1   
     6     3     5 ar  
     7     5     6 ar  
     8     5    23 1   
     9     6     7 1   
    10     6     8 ar  
    11     8     9 1   
    12     8    10 ar  
    13    10    11 1   
    14    11    12 1   
    15    11    24 1   
    16    11    25 1   
    17    12    13 ar  
    18    12    20 ar  
    19    13    14 1   
    20    13    15 ar  
    21    15    16 1   
    22    15    17 ar  
    23    17    18 ar  
    24    17    26 1   
    25    18    19 1   
    26    18    20 ar  
    27    20    21 1   
    28    21    27 1   
@<TRIPOS>SUBSTRUCTURE
     1 H3P         1 TEMP              0 ****  ****    0 ROOT
