@<TRIPOS>MOLECULE
H3P
   27    28     1     0     0
SMALL
No Charge or Current Charge


@<TRIPOS>ATOM
      1 OAA         -0.3480    -2.2100     0.0900 oh         1 H3P      -0.514100
      2 CAP         -1.3650    -1.2970     0.0160 ca         1 H3P       0.169100
      3 CAL         -2.5120    -1.4890     0.8120 ca         1 H3P       0.015500
      4 ClAC        -2.6300    -2.8730     1.9000 cl         1 H3P      -0.189000
      5 CAI         -3.5770    -0.5820     0.7490 ca         1 H3P      -0.045000
      6 CAN         -3.5080     0.5180    -0.1160 ca         1 H3P       0.077000
      7 ClAE        -4.8810     1.6280    -0.1750 cl         1 H3P      -0.166000
      8 CAR         -2.3660     0.7240    -0.9210 ca         1 H3P       0.172500
      9 ClAG        -2.3480     2.1210    -2.0130 cl         1 H3P      -0.156000
     10 CAT         -1.2700    -0.1810    -0.8540 ca         1 H3P      -0.090300
     11 CAK          0.0010     0.0150    -1.7060 c3         1 H3P       0.036200
     12 CAU          1.2750     0.2110    -0.8610 ca         1 H3P      -0.090300
     13 CAS          2.3710    -0.6950    -0.9340 ca         1 H3P       0.172500
     14 ClAH         2.3480    -2.0900    -2.0270 cl         1 H3P      -0.156000
     15 CAO          3.5180    -0.4900    -0.1350 ca         1 H3P       0.077000
     16 ClAF         4.8900    -1.6000    -0.2010 cl         1 H3P      -0.166000
     17 CAJ          3.5910     0.6100     0.7310 ca         1 H3P      -0.045000
     18 CAM          2.5260     1.5160     0.8010 ca         1 H3P       0.015500
     19 ClAD         2.6500     2.9000     1.8890 cl         1 H3P      -0.189000
     20 CAQ          1.3750     1.3250     0.0100 ca         1 H3P       0.169100
     21 OAB          0.3590     2.2380     0.0900 oh         1 H3P      -0.514100
     22 HOAA        -0.6120    -2.9030     0.7330 ho         1 H3P       0.483000
     23 HAI         -4.4600    -0.7340     1.3650 ha         1 H3P       0.147000
     24 HAK          0.0810    -0.8380    -2.3860 hc         1 H3P       0.076700
     25 HAKA        -0.0830     0.8690    -2.3850 hc         1 H3P       0.076700
     26 HAJ          4.4770     0.7610     1.3420 ha         1 H3P       0.147000
     27 HOAB         0.6260     2.9310     0.7320 ho         1 H3P       0.483000
@<TRIPOS>BOND
     1     1     2 1   
     2     1    22 1   
     3     2     3 ar  
     4     2    10 ar  
     5     3     4 1   
     6     3     5 ar  
     7     5     6 ar  
     8     5    23 1   
     9     6     7 1   
    10     6     8 ar  
    11     8     9 1   
    12     8    10 ar  
    13    10    11 1   
    14    11    12 1   
    15    11    24 1   
    16    11    25 1   
    17    12    13 ar  
    18    12    20 ar  
    19    13    14 1   
    20    13    15 ar  
    21    15    16 1   
    22    15    17 ar  
    23    17    18 ar  
    24    17    26 1   
    25    18    19 1   
    26    18    20 ar  
    27    20    21 1   
    28    21    27 1   
@<TRIPOS>SUBSTRUCTURE
     1 H3P         1 TEMP              0 ****  ****    0 ROOT
