@<TRIPOS>MOLECULE
H3Q
   44    48     1     0     0
SMALL
No Charge or Current Charge


@<TRIPOS>ATOM
      1 C4           3.0400    -0.6550    -0.1080 ca         1 H3Q       0.450500
      2 C5           3.5330    -1.9730    -0.3190 ca         1 H3Q      -0.144000
      3 C6           2.6340    -3.0580    -0.4050 ca         1 H3Q      -0.056000
      4 N1           5.9000     1.6740     0.0140 nc         1 H3Q      -0.528800
      5 C7           1.2840    -2.7320    -0.2660 ca         1 H3Q      -0.004900
      6 C8           0.8810    -1.4310    -0.0580 ca         1 H3Q       0.352800
      7 N2           1.7150    -0.3760     0.0210 nb         1 H3Q      -0.648000
      8 C9          -0.5700    -1.4550     0.0270 cc         1 H3Q      -0.191000
      9 C10         -0.9310    -2.7900    -0.1350 cd         1 H3Q      -0.053900
     10 C11         -1.5440    -0.3850     0.2630 ca         1 H3Q      -0.013800
     11 C12         -1.1840     0.7660     0.9900 ca         1 H3Q      -0.083000
     12 C13         -2.1200     1.7870     1.2180 ca         1 H3Q      -0.117000
     13 C14         -3.4280     1.6700     0.7210 ca         1 H3Q      -0.101000
     14 C15         -3.8090     0.5260    -0.0080 ca         1 H3Q      -0.064300
     15 N            4.8030     2.4910     0.1920 na         1 H3Q       0.131800
     16 C3           5.3570     0.4780    -0.1090 cd         1 H3Q       0.260900
     17 C2           3.9480     0.4990    -0.0150 cd         1 H3Q      -0.281500
     18 C1           3.5920     1.8080     0.1810 cc         1 H3Q      -0.117000
     19 O            0.1990    -3.5550    -0.3120 os         1 H3Q      -0.158200
     20 C16         -2.8620    -0.4940    -0.2300 ca         1 H3Q      -0.100000
     21 C17         -5.2280     0.3720    -0.5640 cy         1 H3Q      -0.040400
     22 C20         -5.8180     1.5780    -1.3790 cy         1 H3Q      -0.083400
     23 C19         -7.2110     1.1190    -0.8350 cy         1 H3Q      -0.095400
     24 C18         -6.4220     0.6290     0.4230 cy         1 H3Q      -0.083400
     25 H1           4.5980    -2.1540    -0.4180 ha         1 H3Q       0.127000
     26 H2           2.9670    -4.0800    -0.5700 ha         1 H3Q       0.135000
     27 H3          -1.8950    -3.2930    -0.1280 h4         1 H3Q       0.242000
     28 H4          -0.1800     0.8700     1.3930 ha         1 H3Q       0.133000
     29 H5          -1.8320     2.6710     1.7830 ha         1 H3Q       0.110000
     30 H6          -4.1390     2.4710     0.9070 ha         1 H3Q       0.111000
     31 H7           5.4830     4.3570    -0.5100 h1         1 H3Q       0.057367
     32 H8           4.0090     4.4220     0.5000 h1         1 H3Q       0.057367
     33 H9           5.5990     4.1230     1.2610 h1         1 H3Q       0.057367
     34 H11          2.6300     2.2910     0.3070 h4         1 H3Q       0.168000
     35 H12         -3.1530    -1.3710    -0.8020 ha         1 H3Q       0.105000
     36 H13         -5.3440    -0.5770    -1.1030 hc         1 H3Q       0.055700
     37 H14         -5.5060     2.5730    -1.0400 hc         1 H3Q       0.050950
     38 H15         -5.6890     1.5270    -2.4650 hc         1 H3Q       0.050950
     39 H16         -7.9450     1.9140    -0.6620 hc         1 H3Q       0.048700
     40 H17         -7.6880     0.3200    -1.4160 hc         1 H3Q       0.048700
     41 H18         -6.8240    -0.2580     0.9240 hc         1 H3Q       0.050950
     42 H19         -6.2490     1.4040     1.1790 hc         1 H3Q       0.050950
     43 H10          6.0070    -0.3740    -0.2630 h4         1 H3Q       0.037100
     44 C            4.9850     3.9380     0.3720 c3         1 H3Q       0.071900
@<TRIPOS>BOND
     1     1     2 ar  
     2     1     7 ar  
     3     1    17 1   
     4     2     3 ar  
     5     2    25 1   
     6     3     5 ar  
     7     3    26 1   
     8     4    15 1   
     9     4    16 2   
    10     5     6 ar  
    11     5    19 1   
    12     6     7 ar  
    13     6     8 1   
    14     8     9 2   
    15     8    10 1   
    16     9    19 1   
    17     9    27 1   
    18    10    11 ar  
    19    10    20 ar  
    20    11    12 ar  
    21    11    28 1   
    22    12    13 ar  
    23    12    29 1   
    24    13    14 ar  
    25    13    30 1   
    26    14    20 ar  
    27    14    21 1   
    28    15    18 1   
    29    15    44 1   
    30    16    17 1   
    31    16    43 1   
    32    17    18 2   
    33    18    34 1   
    34    20    35 1   
    35    21    22 1   
    36    21    24 1   
    37    21    36 1   
    38    22    23 1   
    39    22    37 1   
    40    22    38 1   
    41    23    24 1   
    42    23    39 1   
    43    23    40 1   
    44    24    41 1   
    45    24    42 1   
    46    31    44 1   
    47    32    44 1   
    48    33    44 1   
@<TRIPOS>SUBSTRUCTURE
     1 H3Q         1 TEMP              0 ****  ****    0 ROOT
