@<TRIPOS>MOLECULE
H3Q
   44    48     1     0     0
SMALL
abcg2


@<TRIPOS>ATOM
      1 C4           2.9970    -0.6710    -0.0890 ca         1 H3Q       0.450500
      2 C5           3.4800    -1.9770    -0.3010 ca         1 H3Q      -0.144000
      3 C6           2.6080    -3.0460    -0.3960 ca         1 H3Q      -0.056000
      4 N1           5.7900     1.7110     0.0290 nc         1 H3Q      -0.528800
      5 C7           1.2720    -2.7290    -0.2660 ca         1 H3Q      -0.004900
      6 C8           0.8570    -1.4150    -0.0570 ca         1 H3Q       0.352800
      7 N2           1.7020    -0.3940     0.0310 nb         1 H3Q      -0.648000
      8 C9          -0.5860    -1.4610     0.0120 cc         1 H3Q      -0.191000
      9 C10         -0.8890    -2.7740    -0.1500 cd         1 H3Q      -0.053900
     10 C11         -1.5280    -0.3570     0.2010 ca         1 H3Q      -0.013800
     11 C12         -1.1300     0.8300     0.8140 ca         1 H3Q      -0.083000
     12 C13         -2.0470     1.8560     0.9980 ca         1 H3Q      -0.117000
     13 C14         -3.3590     1.7170     0.5760 ca         1 H3Q      -0.101000
     14 C15         -3.7800     0.5410    -0.0480 ca         1 H3Q      -0.064300
     15 N            4.7260     2.4720     0.2710 na         1 H3Q       0.131800
     16 C3           5.3190     0.4900    -0.1300 cd         1 H3Q       0.260900
     17 C2           3.9170     0.4560     0.0080 cd         1 H3Q      -0.281500
     18 C1           3.5830     1.7740     0.2670 cc         1 H3Q      -0.117000
     19 O            0.2070    -3.5530    -0.3190 os         1 H3Q      -0.158200
     20 C16         -2.8530    -0.4770    -0.2280 ca         1 H3Q      -0.100000
     21 C17         -5.1890     0.3770    -0.5270 cy         1 H3Q      -0.040400
     22 C20         -5.8370     1.4690    -1.4100 cy         1 H3Q      -0.083400
     23 C19         -7.1700     1.2090    -0.6860 cy         1 H3Q      -0.095400
     24 C18         -6.3680     0.5630     0.4580 cy         1 H3Q      -0.083400
     25 H1           4.5430    -2.1510    -0.3920 ha         1 H3Q       0.127000
     26 H2           2.9590    -4.0560    -0.5600 ha         1 H3Q       0.135000
     27 H3          -1.8350    -3.2930    -0.1550 h4         1 H3Q       0.242000
     28 H4          -0.1080     0.9560     1.1450 ha         1 H3Q       0.133000
     29 H5          -1.7300     2.7740     1.4770 ha         1 H3Q       0.110000
     30 H6          -4.0560     2.5330     0.7260 ha         1 H3Q       0.111000
     31 H7           5.2210     4.3730    -0.4440 h1         1 H3Q       0.057367
     32 H8           3.9270     4.3160     0.7630 h1         1 H3Q       0.057367
     33 H9           5.6070     4.0790     1.2630 h1         1 H3Q       0.057367
     34 H11          2.6280     2.2370     0.4490 h4         1 H3Q       0.168000
     35 H12         -3.1710    -1.3840    -0.7320 ha         1 H3Q       0.105000
     36 H13         -5.2890    -0.5920    -1.0230 hc         1 H3Q       0.055700
     37 H14         -5.4430     2.4600    -1.1730 hc         1 H3Q       0.050950
     38 H15         -5.7940     1.3270    -2.4900 hc         1 H3Q       0.050950
     39 H16         -7.7890     2.0730    -0.4440 hc         1 H3Q       0.048700
     40 H17         -7.7830     0.4790    -1.2150 hc         1 H3Q       0.048700
     41 H18         -6.7680    -0.3340     0.9320 hc         1 H3Q       0.050950
     42 H19         -6.1280     1.2900     1.2360 hc         1 H3Q       0.050950
     43 H10          5.9960    -0.3250    -0.3390 h4         1 H3Q       0.037100
     44 C            4.8840     3.8930     0.4730 c3         1 H3Q       0.071900
@<TRIPOS>BOND
     1     1     2 ar  
     2     1     7 ar  
     3     1    17 1   
     4     2     3 ar  
     5     2    25 1   
     6     3     5 ar  
     7     3    26 1   
     8     4    15 1   
     9     4    16 2   
    10     5     6 ar  
    11     5    19 1   
    12     6     7 ar  
    13     6     8 1   
    14     8     9 2   
    15     8    10 1   
    16     9    19 1   
    17     9    27 1   
    18    10    11 ar  
    19    10    20 ar  
    20    11    12 ar  
    21    11    28 1   
    22    12    13 ar  
    23    12    29 1   
    24    13    14 ar  
    25    13    30 1   
    26    14    20 ar  
    27    14    21 1   
    28    15    18 1   
    29    15    44 1   
    30    16    17 1   
    31    16    43 1   
    32    17    18 2   
    33    18    34 1   
    34    20    35 1   
    35    21    22 1   
    36    21    24 1   
    37    21    36 1   
    38    22    23 1   
    39    22    37 1   
    40    22    38 1   
    41    23    24 1   
    42    23    39 1   
    43    23    40 1   
    44    24    41 1   
    45    24    42 1   
    46    31    44 1   
    47    32    44 1   
    48    33    44 1   
@<TRIPOS>SUBSTRUCTURE
     1 H3Q         1 TEMP              0 ****  ****    0 ROOT
