@<TRIPOS>MOLECULE
H3R
   22    23     1     0     0
SMALL
abcg2


@<TRIPOS>ATOM
      1 C1          -2.7890     0.2490     0.0150 cc         1 H3R       0.255300
      2 C2          -4.1590     0.8200     0.1440 c3         1 H3R      -0.119400
      3 C3          -1.5570     0.9180     0.1420 cc         1 H3R      -0.216000
      4 C7           1.6490    -1.1030     0.2360 ca         1 H3R      -0.097500
      5 C8           1.4960     1.2440    -0.2560 ca         1 H3R      -0.097500
      6 C9           3.0320    -1.0070     0.2540 ca         1 H3R      -0.107500
      7 C10          2.8790     1.3390    -0.2290 ca         1 H3R      -0.107500
      8 C11          3.6530     0.2130     0.0230 ca         1 H3R      -0.103000
      9 C12         -0.5950    -0.0540    -0.0480 cd         1 H3R      -0.093000
     10 N13         -1.2780    -1.1960    -0.2670 na         1 H3R      -0.001200
     11 C4           0.8630     0.0210    -0.0240 ca         1 H3R      -0.020000
     12 N3          -2.5980    -1.0340    -0.2390 nd         1 H3R      -0.519800
     13 H21C        -4.3110     1.6480    -0.5480 hc         1 H3R       0.046367
     14 H22C        -4.9150     0.0640    -0.0620 hc         1 H3R       0.046367
     15 H23C        -4.3350     1.2040     1.1500 hc         1 H3R       0.046367
     16 H3          -1.3970     1.9610     0.3630 ha         1 H3R       0.143000
     17 H9           3.6260    -1.8890     0.4590 ha         1 H3R       0.115500
     18 H8           0.9050     2.1240    -0.4720 ha         1 H3R       0.113500
     19 H10          3.3520     2.2940    -0.4130 ha         1 H3R       0.115500
     20 H11          4.7320     0.2870     0.0400 ha         1 H3R       0.115000
     21 H13         -0.9000    -2.1020    -0.4920 hn         1 H3R       0.370000
     22 H7           1.1890    -2.0610     0.4470 ha         1 H3R       0.113500
@<TRIPOS>BOND
     1     1     2 1   
     2     1     3 1   
     3     1    12 2   
     4     2    13 1   
     5     2    14 1   
     6     2    15 1   
     7     3     9 2   
     8     3    16 1   
     9     4     6 ar  
    10     4    11 ar  
    11     4    22 1   
    12     5     7 ar  
    13     5    11 ar  
    14     5    18 1   
    15     6     8 ar  
    16     6    17 1   
    17     7     8 ar  
    18     7    19 1   
    19     8    20 1   
    20     9    10 1   
    21     9    11 1   
    22    10    12 1   
    23    10    21 1   
@<TRIPOS>SUBSTRUCTURE
     1 H3R         1 TEMP              0 ****  ****    0 ROOT
