@<TRIPOS>MOLECULE
H3R
   22    23     1     0     0
SMALL
No Charge or Current Charge


@<TRIPOS>ATOM
      1 C1          -2.8160     0.1710     0.0260 cc         1 H3R       0.255300
      2 C2          -4.1160     0.9240     0.0220 c3         1 H3R      -0.119400
      3 C3          -1.5720     0.8140     0.0090 cc         1 H3R      -0.216000
      4 C7           1.6920    -1.1450     0.0200 ca         1 H3R      -0.097500
      5 C8           1.4500     1.2720    -0.0150 ca         1 H3R      -0.097500
      6 C9           3.0910    -1.0040     0.0100 ca         1 H3R      -0.107500
      7 C10          2.8490     1.4120    -0.0250 ca         1 H3R      -0.107500
      8 C11          3.6710     0.2740    -0.0120 ca         1 H3R      -0.103000
      9 C12         -0.6140    -0.1560     0.0180 cd         1 H3R      -0.093000
     10 N13         -1.3470    -1.3540     0.0400 na         1 H3R      -0.001200
     11 C4           0.8550    -0.0080     0.0080 ca         1 H3R      -0.020000
     12 N3          -2.7280    -1.1420     0.0450 nd         1 H3R      -0.519800
     13 H21C        -4.1960     1.5520    -0.8730 hc         1 H3R       0.046367
     14 H22C        -4.9730     0.2410     0.0340 hc         1 H3R       0.046367
     15 H23C        -4.1890     1.5740     0.9010 hc         1 H3R       0.046367
     16 H3          -1.4330     1.8890    -0.0080 ha         1 H3R       0.143000
     17 H9           3.7260    -1.8880     0.0200 ha         1 H3R       0.115500
     18 H8           0.8330     2.1670    -0.0240 ha         1 H3R       0.113500
     19 H10          3.2950     2.4040    -0.0420 ha         1 H3R       0.115500
     20 H11          4.7530     0.3830    -0.0200 ha         1 H3R       0.115000
     21 H13         -0.9570    -2.2950     0.0520 hn         1 H3R       0.370000
     22 H7           1.2680    -2.1450     0.0370 ha         1 H3R       0.113500
@<TRIPOS>BOND
     1     1     2 1   
     2     1     3 1   
     3     1    12 2   
     4     2    13 1   
     5     2    14 1   
     6     2    15 1   
     7     3     9 2   
     8     3    16 1   
     9     4     6 ar  
    10     4    11 ar  
    11     4    22 1   
    12     5     7 ar  
    13     5    11 ar  
    14     5    18 1   
    15     6     8 ar  
    16     6    17 1   
    17     7     8 ar  
    18     7    19 1   
    19     8    20 1   
    20     9    10 1   
    21     9    11 1   
    22    10    12 1   
    23    10    21 1   
@<TRIPOS>SUBSTRUCTURE
     1 H3R         1 TEMP              0 ****  ****    0 ROOT
