@<TRIPOS>MOLECULE
H3T
  124   124     1     0     0
SMALL
abcg2


@<TRIPOS>ATOM
      1 C10         -6.5920    -0.5990     1.0590 c3         1 H3T      -0.076400
      2 C11         -8.1110    -0.6990     1.1090 c3         1 H3T      -0.074400
      3 C12         -8.6430    -2.0440     0.6300 c3         1 H3T      -0.074400
      4 C01          1.0960     4.9430     2.2990 c3         1 H3T       0.155300
      5 C02          0.0140     4.5540     3.2860 c3         1 H3T       0.174600
      6 C04         -1.9360     3.5850     2.3170 c          1 H3T       0.618100
      7 C06         -2.4960     2.2840     1.8130 c3         1 H3T      -0.143400
      8 C07         -4.0160     2.2120     1.8950 c3         1 H3T      -0.062400
      9 C08         -4.5410     0.8410     1.4860 c3         1 H3T      -0.082400
     10 C09         -6.0610     0.7550     1.5150 c3         1 H3T      -0.072400
     11 C13        -10.1620    -2.1460     0.6900 c3         1 H3T      -0.074400
     12 C14        -10.6970    -3.4860     0.2000 c3         1 H3T      -0.074400
     13 C15        -12.2150    -3.5880     0.2660 c3         1 H3T      -0.074400
     14 C16        -12.7520    -4.9260    -0.2290 c3         1 H3T      -0.074400
     15 C17        -14.2710    -5.0280    -0.1580 c3         1 H3T      -0.074400
     16 C18        -14.8090    -6.3640    -0.6540 c3         1 H3T      -0.075400
     17 C19        -16.3260    -6.4720    -0.5750 c3         1 H3T      -0.075400
     18 C20        -16.8520    -7.8100    -1.0750 c3         1 H3T      -0.088100
     19 C21          0.5950     5.4390     0.9550 c3         1 H3T       0.196600
     20 C27         -1.8460     3.0710    -2.7390 c3         1 H3T       0.189600
     21 C28         -2.2440     1.6120    -2.8870 c3         1 H3T       0.160300
     22 C30         -2.9770     1.4200    -4.2060 c3         1 H3T       0.118600
     23 C35          3.9450     2.6520     1.7740 c3         1 H3T      -0.139400
     24 C36          5.4220     2.7630     1.4320 c3         1 H3T      -0.066400
     25 C37          6.1180     1.4110     1.5280 c3         1 H3T      -0.076400
     26 C38          7.6040     1.4740     1.2010 c3         1 H3T      -0.073400
     27 C39          8.2960     0.1240     1.3460 c3         1 H3T      -0.075400
     28 C40          9.7840     0.1610     1.0230 c3         1 H3T      -0.073400
     29 C41         10.4470    -1.2060     1.1580 c3         1 H3T      -0.047400
     30 C42         11.9220    -1.1760     0.8440 cx         1 H3T      -0.110700
     31 C43         12.4100    -1.1990    -0.5760 cx         1 H3T      -0.133400
     32 C44         12.6650    -2.3730     0.3260 cx         1 H3T      -0.118700
     33 C45         11.9910    -3.6960     0.0600 c3         1 H3T      -0.045400
     34 C46         12.8120    -4.5980    -0.8550 c3         1 H3T      -0.073400
     35 C47         12.1240    -5.9250    -1.1490 c3         1 H3T      -0.076400
     36 C48         12.9450    -6.8510    -2.0360 c3         1 H3T      -0.074400
     37 C49         12.2430    -8.1690    -2.3420 c3         1 H3T      -0.075400
     38 C50         13.0750    -9.0920    -3.2210 c3         1 H3T      -0.088100
     39 O03         -0.7270     3.4180     2.8540 os         1 H3T      -0.430100
     40 O05         -2.5030     4.6460     2.2610 o          1 H3T      -0.494000
     41 O22         -0.0050     4.3850     0.2400 os         1 H3T      -0.573400
     42 O24          0.8100     4.8510    -2.1520 o          1 H3T      -0.824500
     43 O25         -1.4680     5.7860    -1.3630 o          1 H3T      -0.824500
     44 O26         -1.1020     3.2380    -1.5520 os         1 H3T      -0.573400
     45 O29         -2.9970     1.1500    -1.7900 oh         1 H3T      -0.641000
     46 O31         -3.2490     0.0520    -4.3860 oh         1 H3T      -0.650000
     47 O32          1.9450     3.8010     2.1500 os         1 H3T      -0.422100
     48 O34          3.7190     5.0460     1.6010 o          1 H3T      -0.505000
     49 P23         -0.4250     4.7130    -1.3140 p5         1 H3T       1.384800
     50 H102        -6.1560    -1.3890     1.6810 hc         1 H3T       0.038700
     51 H101        -6.2480    -0.7960     0.0370 hc         1 H3T       0.038700
     52 H111        -8.4520    -0.5180     2.1350 hc         1 H3T       0.034700
     53 H112        -8.5470     0.1010     0.5000 hc         1 H3T       0.034700
     54 H121        -8.3080    -2.2200    -0.3990 hc         1 H3T       0.037200
     55 H122        -8.2010    -2.8450     1.2320 hc         1 H3T       0.037200
     56 H011         1.6460     5.7690     2.7620 h1         1 H3T       0.044700
     57 H022         0.4720     4.2780     4.2370 h1         1 H3T       0.052200
     58 H021        -0.6330     5.4140     3.4610 h1         1 H3T       0.052200
     59 H061        -2.1760     2.1820     0.7690 hc         1 H3T       0.088700
     60 H062        -2.0420     1.4530     2.3560 hc         1 H3T       0.088700
     61 H072        -4.3450     2.4320     2.9150 hc         1 H3T       0.043700
     62 H071        -4.4580     2.9790     1.2550 hc         1 H3T       0.043700
     63 H082        -4.1790     0.5970     0.4820 hc         1 H3T       0.045700
     64 H081        -4.1220     0.0770     2.1490 hc         1 H3T       0.045700
     65 H091        -6.4830     1.5410     0.8780 hc         1 H3T       0.033700
     66 H092        -6.4180     0.9630     2.5290 hc         1 H3T       0.033700
     67 H131       -10.4960    -1.9770     1.7200 hc         1 H3T       0.035700
     68 H132       -10.6040    -1.3390     0.0940 hc         1 H3T       0.035700
     69 H142       -10.3660    -3.6530    -0.8310 hc         1 H3T       0.036700
     70 H141       -10.2520    -4.2930     0.7930 hc         1 H3T       0.036700
     71 H151       -12.5450    -3.4250     1.2980 hc         1 H3T       0.036200
     72 H152       -12.6590    -2.7790    -0.3240 hc         1 H3T       0.036200
     73 H161       -12.4250    -5.0880    -1.2620 hc         1 H3T       0.037200
     74 H162       -12.3060    -5.7360     0.3590 hc         1 H3T       0.037200
     75 H171       -14.5970    -4.8670     0.8760 hc         1 H3T       0.036200
     76 H172       -14.7170    -4.2170    -0.7440 hc         1 H3T       0.036200
     77 H182       -14.4880    -6.5240    -1.6900 hc         1 H3T       0.036700
     78 H181       -14.3580    -7.1760    -0.0710 hc         1 H3T       0.036700
     79 H192       -16.6460    -6.3160     0.4600 hc         1 H3T       0.036200
     80 H191       -16.7770    -5.6600    -1.1550 hc         1 H3T       0.036200
     81 H201       -16.5950    -7.9670    -2.1250 hc         1 H3T       0.029700
     82 H202       -16.4250    -8.6380    -0.5060 hc         1 H3T       0.029700
     83 H203       -17.9370    -7.8750    -0.9890 hc         1 H3T       0.029700
     84 H212        -0.1150     6.2520     1.1450 h1         1 H3T       0.042200
     85 H211         1.4350     5.8650     0.3970 h1         1 H3T       0.042200
     86 H272        -1.2620     3.3660    -3.6190 h1         1 H3T       0.023700
     87 H271        -2.7470     3.6990    -2.7260 h1         1 H3T       0.023700
     88 H281        -1.3350     1.0010    -2.9010 h1         1 H3T       0.090700
     89 H301        -3.8990     2.0200    -4.1940 h1         1 H3T       0.016700
     90 H302        -2.3530     1.8200    -5.0160 h1         1 H3T       0.016700
     91 H351         3.8160     2.1680     2.7480 hc         1 H3T       0.071200
     92 H352         3.4320     2.0020     1.0580 hc         1 H3T       0.071200
     93 H361         5.5430     3.1690     0.4240 hc         1 H3T       0.052700
     94 H362         5.9080     3.4680     2.1110 hc         1 H3T       0.052700
     95 H371         5.9870     1.0130     2.5400 hc         1 H3T       0.035200
     96 H372         5.6290     0.6960     0.8570 hc         1 H3T       0.035200
     97 H382         7.7390     1.8450     0.1790 hc         1 H3T       0.039200
     98 H381         8.0900     2.2060     1.8550 hc         1 H3T       0.039200
     99 H392         8.1560    -0.2430     2.3680 hc         1 H3T       0.035700
    100 H391         7.8040    -0.6070     0.6940 hc         1 H3T       0.035700
    101 H401         9.9300     0.5310     0.0030 hc         1 H3T       0.039200
    102 H402        10.2840     0.8800     1.6820 hc         1 H3T       0.039200
    103 H412        10.2990    -1.5800     2.1770 hc         1 H3T       0.040200
    104 H411         9.9320    -1.9120     0.5010 hc         1 H3T       0.040200
    105 H421        12.4940    -0.5410     1.5160 hc         1 H3T       0.070700
    106 H431        11.6640    -1.3280    -1.3540 hc         1 H3T       0.070200
    107 H432        13.2350    -0.5570    -0.8590 hc         1 H3T       0.070200
    108 H441        13.6850    -2.4710     0.6890 hc         1 H3T       0.069700
    109 H451        11.8000    -4.2170     1.0050 hc         1 H3T       0.042200
    110 H452        11.0100    -3.5330    -0.3950 hc         1 H3T       0.042200
    111 H461        13.0130    -4.0740    -1.7960 hc         1 H3T       0.037700
    112 H462        13.7900    -4.7870    -0.3990 hc         1 H3T       0.037700
    113 H471        11.8980    -6.4330    -0.2050 hc         1 H3T       0.037200
    114 H472        11.1560    -5.7310    -1.6250 hc         1 H3T       0.037200
    115 H481        13.1820    -6.3410    -2.9760 hc         1 H3T       0.036200
    116 H482        13.9070    -7.0570    -1.5540 hc         1 H3T       0.036200
    117 H492        12.0000    -8.6750    -1.4020 hc         1 H3T       0.037200
    118 H491        11.2850    -7.9630    -2.8290 hc         1 H3T       0.037200
    119 H501        13.3070    -8.6200    -4.1770 hc         1 H3T       0.030033
    120 H502        14.0220    -9.3440    -2.7410 hc         1 H3T       0.030033
    121 H503        12.5530   -10.0270    -3.4320 hc         1 H3T       0.030033
    122 H291        -3.7920     1.6890    -1.7160 ho         1 H3T       0.429000
    123 H311        -3.7460    -0.0450    -5.2030 ho         1 H3T       0.426000
    124 C33          3.2220     3.9700     1.8190 c          1 H3T       0.604100
@<TRIPOS>BOND
     1     1     2 1   
     2     1    10 1   
     3     1    50 1   
     4     1    51 1   
     5     2     3 1   
     6     2    52 1   
     7     2    53 1   
     8     3    11 1   
     9     3    54 1   
    10     3    55 1   
    11     4     5 1   
    12     4    19 1   
    13     4    47 1   
    14     4    56 1   
    15     5    39 1   
    16     5    57 1   
    17     5    58 1   
    18     6     7 1   
    19     6    39 1   
    20     6    40 2   
    21     7     8 1   
    22     7    59 1   
    23     7    60 1   
    24     8     9 1   
    25     8    61 1   
    26     8    62 1   
    27     9    10 1   
    28     9    63 1   
    29     9    64 1   
    30    10    65 1   
    31    10    66 1   
    32    11    12 1   
    33    11    67 1   
    34    11    68 1   
    35    12    13 1   
    36    12    69 1   
    37    12    70 1   
    38    13    14 1   
    39    13    71 1   
    40    13    72 1   
    41    14    15 1   
    42    14    73 1   
    43    14    74 1   
    44    15    16 1   
    45    15    75 1   
    46    15    76 1   
    47    16    17 1   
    48    16    77 1   
    49    16    78 1   
    50    17    18 1   
    51    17    79 1   
    52    17    80 1   
    53    18    81 1   
    54    18    82 1   
    55    18    83 1   
    56    19    41 1   
    57    19    84 1   
    58    19    85 1   
    59    20    21 1   
    60    20    44 1   
    61    20    86 1   
    62    20    87 1   
    63    21    22 1   
    64    21    45 1   
    65    21    88 1   
    66    22    46 1   
    67    22    89 1   
    68    22    90 1   
    69    23    24 1   
    70    23    91 1   
    71    23    92 1   
    72    23   124 1   
    73    24    25 1   
    74    24    93 1   
    75    24    94 1   
    76    25    26 1   
    77    25    95 1   
    78    25    96 1   
    79    26    27 1   
    80    26    97 1   
    81    26    98 1   
    82    27    28 1   
    83    27    99 1   
    84    27   100 1   
    85    28    29 1   
    86    28   101 1   
    87    28   102 1   
    88    29    30 1   
    89    29   103 1   
    90    29   104 1   
    91    30    31 1   
    92    30    32 1   
    93    30   105 1   
    94    31    32 1   
    95    31   106 1   
    96    31   107 1   
    97    32    33 1   
    98    32   108 1   
    99    33    34 1   
   100    33   109 1   
   101    33   110 1   
   102    34    35 1   
   103    34   111 1   
   104    34   112 1   
   105    35    36 1   
   106    35   113 1   
   107    35   114 1   
   108    36    37 1   
   109    36   115 1   
   110    36   116 1   
   111    37    38 1   
   112    37   117 1   
   113    37   118 1   
   114    38   119 1   
   115    38   120 1   
   116    38   121 1   
   117    41    49 1   
   118    42    49 1   
   119    43    49 1   
   120    44    49 1   
   121    45   122 1   
   122    46   123 1   
   123    47   124 1   
   124    48   124 2   
@<TRIPOS>SUBSTRUCTURE
     1 H3T         1 TEMP              0 ****  ****    0 ROOT
