@<TRIPOS>MOLECULE
H3T
  124   124     1     0     0
SMALL
No Charge or Current Charge


@<TRIPOS>ATOM
      1 C10         -6.3070    -0.8070     0.3950 c3         1 H3T      -0.076400
      2 C11         -7.6560    -1.2710     0.9870 c3         1 H3T      -0.074400
      3 C12         -8.2470    -2.4960     0.2560 c3         1 H3T      -0.074400
      4 C01          0.9510     5.0660     2.4090 c3         1 H3T       0.155300
      5 C02         -0.3870     4.6110     3.0700 c3         1 H3T       0.174600
      6 C04         -1.9350     3.8500     1.3630 c          1 H3T       0.618100
      7 C06         -2.4500     2.6050     0.6440 c3         1 H3T      -0.143400
      8 C07         -3.7900     2.1240     1.2470 c3         1 H3T      -0.062400
      9 C08         -4.3690     0.8870     0.5260 c3         1 H3T      -0.082400
     10 C09         -5.7170     0.4220     1.1210 c3         1 H3T      -0.072400
     11 C13         -9.5960    -2.9610     0.8480 c3         1 H3T      -0.074400
     12 C14        -10.1920    -4.1810     0.1120 c3         1 H3T      -0.074400
     13 C15        -11.5430    -4.6420     0.7000 c3         1 H3T      -0.074400
     14 C16        -12.1420    -5.8560    -0.0430 c3         1 H3T      -0.074400
     15 C17        -13.4990    -6.3120     0.5380 c3         1 H3T      -0.074400
     16 C18        -14.1030    -7.5200    -0.2110 c3         1 H3T      -0.075400
     17 C19        -15.4630    -7.9710     0.3650 c3         1 H3T      -0.075400
     18 C20        -16.0680    -9.1730    -0.3860 c3         1 H3T      -0.088100
     19 C21          0.9100     5.3850     0.8780 c3         1 H3T       0.196600
     20 C27         -1.2960     5.6180    -1.9710 c3         1 H3T       0.189600
     21 C28         -1.0330     6.2150    -3.3890 c3         1 H3T       0.160300
     22 C30         -1.6590     7.6260    -3.5360 c3         1 H3T       0.118600
     23 C35          4.2120     3.2150     2.8180 c3         1 H3T      -0.139400
     24 C36          4.7740     2.6630     1.4870 c3         1 H3T      -0.066400
     25 C37          5.8060     1.5310     1.6910 c3         1 H3T      -0.076400
     26 C38          6.4210     1.0240     0.3680 c3         1 H3T      -0.073400
     27 C39          7.5020    -0.0590     0.5820 c3         1 H3T      -0.075400
     28 C40          8.1450    -0.5460    -0.7360 c3         1 H3T      -0.073400
     29 C41          9.2610    -1.5900    -0.5130 c3         1 H3T      -0.047400
     30 C42          9.8920    -2.0690    -1.8190 cx         1 H3T      -0.110700
     31 C43          9.3630    -3.2900    -2.5400 cx         1 H3T      -0.133400
     32 C44         10.7390    -3.3210    -1.9120 cx         1 H3T      -0.118700
     33 C45         11.0380    -4.2090    -0.7050 c3         1 H3T      -0.045400
     34 C46         11.5030    -5.6260    -1.1080 c3         1 H3T      -0.073400
     35 C47         11.7830    -6.5370     0.1070 c3         1 H3T      -0.076400
     36 C48         12.2380    -7.9570    -0.2940 c3         1 H3T      -0.074400
     37 C49         12.5020    -8.8730     0.9220 c3         1 H3T      -0.075400
     38 C50         12.9500   -10.2920     0.5240 c3         1 H3T      -0.088100
     39 O03         -1.0220     3.5370     2.3400 os         1 H3T      -0.430100
     40 O05         -2.3250     4.9830     1.1120 o          1 H3T      -0.494000
     41 O22          0.8560     4.1650     0.1170 os         1 H3T      -0.573400
     42 O24          1.4340     2.8830    -2.0090 o          1 H3T      -0.824500
     43 O25          1.7380     5.3320    -2.0020 o          1 H3T      -0.824500
     44 O26         -0.6500     4.3400    -1.8140 os         1 H3T      -0.573400
     45 O29         -1.5820     5.3680    -4.4210 oh         1 H3T      -0.641000
     46 O31         -1.4690     8.1210    -4.8720 oh         1 H3T      -0.650000
     47 O32          1.9640     4.0630     2.6830 os         1 H3T      -0.422100
     48 O34          3.6950     5.5410     2.3520 o          1 H3T      -0.505000
     49 P23          0.9250     4.1880    -1.4940 p5         1 H3T       1.384800
     50 H102        -5.5870    -1.6340     0.4450 hc         1 H3T       0.038700
     51 H101        -6.4440    -0.5660    -0.6670 hc         1 H3T       0.038700
     52 H111        -7.5180    -1.5160     2.0480 hc         1 H3T       0.034700
     53 H112        -8.3740    -0.4430     0.9400 hc         1 H3T       0.034700
     54 H121        -8.3850    -2.2500    -0.8040 hc         1 H3T       0.037200
     55 H122        -7.5300    -3.3250     0.3020 hc         1 H3T       0.037200
     56 H011         1.2220     5.9980     2.9220 h1         1 H3T       0.044700
     57 H022        -0.1540     4.2720     4.0880 h1         1 H3T       0.052200
     58 H021        -1.0570     5.4740     3.1790 h1         1 H3T       0.052200
     59 H061        -2.5990     2.8460    -0.4150 hc         1 H3T       0.088700
     60 H062        -1.7170     1.7980     0.7550 hc         1 H3T       0.088700
     61 H072        -3.6440     1.8890     2.3090 hc         1 H3T       0.043700
     62 H071        -4.5200     2.9420     1.1980 hc         1 H3T       0.043700
     63 H082        -4.5070     1.1210    -0.5370 hc         1 H3T       0.045700
     64 H081        -3.6460     0.0640     0.5830 hc         1 H3T       0.045700
     65 H091        -6.4370     1.2490     1.0700 hc         1 H3T       0.033700
     66 H092        -5.5790     0.1820     2.1820 hc         1 H3T       0.033700
     67 H131        -9.4580    -3.2110     1.9070 hc         1 H3T       0.035700
     68 H132       -10.3130    -2.1310     0.8060 hc         1 H3T       0.035700
     69 H142       -10.3270    -3.9310    -0.9480 hc         1 H3T       0.036700
     70 H141        -9.4770    -5.0120     0.1560 hc         1 H3T       0.036700
     71 H151       -11.4070    -4.8980     1.7580 hc         1 H3T       0.036200
     72 H152       -12.2560    -3.8090     0.6610 hc         1 H3T       0.036200
     73 H161       -12.2720    -5.6010    -1.1020 hc         1 H3T       0.037200
     74 H162       -11.4320    -6.6910     0.0000 hc         1 H3T       0.037200
     75 H171       -13.3670    -6.5720     1.5960 hc         1 H3T       0.036200
     76 H172       -14.2060    -5.4740     0.5000 hc         1 H3T       0.036200
     77 H182       -14.2290    -7.2610    -1.2690 hc         1 H3T       0.036700
     78 H181       -13.3980    -8.3590    -0.1680 hc         1 H3T       0.036700
     79 H192       -15.3410    -8.2360     1.4230 hc         1 H3T       0.036200
     80 H191       -16.1710    -7.1330     0.3250 hc         1 H3T       0.036200
     81 H201       -16.2350    -8.9270    -1.4410 hc         1 H3T       0.029700
     82 H202       -15.3990   -10.0400    -0.3330 hc         1 H3T       0.029700
     83 H203       -17.0310    -9.4550     0.0570 hc         1 H3T       0.029700
     84 H212         0.0420     6.0210     0.6730 h1         1 H3T       0.042200
     85 H211         1.8040     5.9620     0.6100 h1         1 H3T       0.042200
     86 H272        -0.9340     6.3300    -1.2190 h1         1 H3T       0.023700
     87 H271        -2.3780     5.5100    -1.8220 h1         1 H3T       0.023700
     88 H281         0.0490     6.3290    -3.5320 h1         1 H3T       0.090700
     89 H301        -2.7310     7.5770    -3.2990 h1         1 H3T       0.016700
     90 H302        -1.1880     8.3030    -2.8110 h1         1 H3T       0.016700
     91 H351         5.0480     3.5410     3.4480 hc         1 H3T       0.071200
     92 H352         3.6540     2.4110     3.3120 hc         1 H3T       0.071200
     93 H361         3.9460     2.2980     0.8660 hc         1 H3T       0.052700
     94 H362         5.2500     3.4830     0.9330 hc         1 H3T       0.052700
     95 H371         6.6110     1.8950     2.3420 hc         1 H3T       0.035200
     96 H372         5.3260     0.6930     2.2120 hc         1 H3T       0.035200
     97 H382         5.6250     0.6220    -0.2710 hc         1 H3T       0.039200
     98 H381         6.8660     1.8710    -0.1690 hc         1 H3T       0.039200
     99 H392         8.2870     0.3440     1.2350 hc         1 H3T       0.035700
    100 H391         7.0580    -0.9140     1.1060 hc         1 H3T       0.035700
    101 H401         7.3680    -0.9810    -1.3780 hc         1 H3T       0.039200
    102 H402         8.5610     0.3150    -1.2730 hc         1 H3T       0.039200
    103 H412        10.0390    -1.1520     0.1240 hc         1 H3T       0.040200
    104 H411         8.8390    -2.4350     0.0440 hc         1 H3T       0.040200
    105 H421        10.2160    -1.2380    -2.4430 hc         1 H3T       0.070700
    106 H431         8.5710    -3.8620    -2.0610 hc         1 H3T       0.070200
    107 H432         9.3020    -3.2510    -3.6240 hc         1 H3T       0.070200
    108 H441        11.5850    -3.2670    -2.5940 hc         1 H3T       0.069700
    109 H451        11.8150    -3.7370    -0.0920 hc         1 H3T       0.042200
    110 H452        10.1510    -4.3050    -0.0680 hc         1 H3T       0.042200
    111 H461        10.7330    -6.0900    -1.7370 hc         1 H3T       0.037700
    112 H462        12.4110    -5.5480    -1.7180 hc         1 H3T       0.037700
    113 H471        12.5560    -6.0750     0.7340 hc         1 H3T       0.037200
    114 H472        10.8750    -6.6110     0.7190 hc         1 H3T       0.037200
    115 H481        11.4680    -8.4160    -0.9280 hc         1 H3T       0.036200
    116 H482        13.1510    -7.8870    -0.8980 hc         1 H3T       0.036200
    117 H492        13.2750    -8.4200     1.5570 hc         1 H3T       0.037200
    118 H491        11.5900    -8.9440     1.5280 hc         1 H3T       0.037200
    119 H501        12.1830   -10.7840    -0.0860 hc         1 H3T       0.030033
    120 H502        13.8820   -10.2580    -0.0520 hc         1 H3T       0.030033
    121 H503        13.1220   -10.9030     1.4180 hc         1 H3T       0.030033
    122 H291        -1.7030     5.9680    -5.1910 ho         1 H3T       0.429000
    123 H311        -1.8400     9.0320    -4.9000 ho         1 H3T       0.426000
    124 C33          3.2870     4.4100     2.5800 c          1 H3T       0.604100
@<TRIPOS>BOND
     1     1     2 1   
     2     1    10 1   
     3     1    50 1   
     4     1    51 1   
     5     2     3 1   
     6     2    52 1   
     7     2    53 1   
     8     3    11 1   
     9     3    54 1   
    10     3    55 1   
    11     4     5 1   
    12     4    19 1   
    13     4    47 1   
    14     4    56 1   
    15     5    39 1   
    16     5    57 1   
    17     5    58 1   
    18     6     7 1   
    19     6    39 1   
    20     6    40 2   
    21     7     8 1   
    22     7    59 1   
    23     7    60 1   
    24     8     9 1   
    25     8    61 1   
    26     8    62 1   
    27     9    10 1   
    28     9    63 1   
    29     9    64 1   
    30    10    65 1   
    31    10    66 1   
    32    11    12 1   
    33    11    67 1   
    34    11    68 1   
    35    12    13 1   
    36    12    69 1   
    37    12    70 1   
    38    13    14 1   
    39    13    71 1   
    40    13    72 1   
    41    14    15 1   
    42    14    73 1   
    43    14    74 1   
    44    15    16 1   
    45    15    75 1   
    46    15    76 1   
    47    16    17 1   
    48    16    77 1   
    49    16    78 1   
    50    17    18 1   
    51    17    79 1   
    52    17    80 1   
    53    18    81 1   
    54    18    82 1   
    55    18    83 1   
    56    19    41 1   
    57    19    84 1   
    58    19    85 1   
    59    20    21 1   
    60    20    44 1   
    61    20    86 1   
    62    20    87 1   
    63    21    22 1   
    64    21    45 1   
    65    21    88 1   
    66    22    46 1   
    67    22    89 1   
    68    22    90 1   
    69    23    24 1   
    70    23    91 1   
    71    23    92 1   
    72    23   124 1   
    73    24    25 1   
    74    24    93 1   
    75    24    94 1   
    76    25    26 1   
    77    25    95 1   
    78    25    96 1   
    79    26    27 1   
    80    26    97 1   
    81    26    98 1   
    82    27    28 1   
    83    27    99 1   
    84    27   100 1   
    85    28    29 1   
    86    28   101 1   
    87    28   102 1   
    88    29    30 1   
    89    29   103 1   
    90    29   104 1   
    91    30    31 1   
    92    30    32 1   
    93    30   105 1   
    94    31    32 1   
    95    31   106 1   
    96    31   107 1   
    97    32    33 1   
    98    32   108 1   
    99    33    34 1   
   100    33   109 1   
   101    33   110 1   
   102    34    35 1   
   103    34   111 1   
   104    34   112 1   
   105    35    36 1   
   106    35   113 1   
   107    35   114 1   
   108    36    37 1   
   109    36   115 1   
   110    36   116 1   
   111    37    38 1   
   112    37   117 1   
   113    37   118 1   
   114    38   119 1   
   115    38   120 1   
   116    38   121 1   
   117    41    49 1   
   118    42    49 1   
   119    43    49 1   
   120    44    49 1   
   121    45   122 1   
   122    46   123 1   
   123    47   124 1   
   124    48   124 2   
@<TRIPOS>SUBSTRUCTURE
     1 H3T         1 TEMP              0 ****  ****    0 ROOT
