@<TRIPOS>MOLECULE
H3U
   60    63     1     0     0
SMALL
bcc


@<TRIPOS>ATOM
      1 O35        118.3030   139.3770   148.7860 o          1 H3U      -0.712867
      2 S31        119.3110   138.9640   147.7970 s6         1 H3U       1.278100
      3 O36        120.2780   137.9830   148.3170 o          1 H3U      -0.712867
      4 O34        119.9400   140.0950   147.0950 o          1 H3U      -0.712867
      5 C22        118.3900   138.0720   146.5370 ca         1 H3U      -0.259500
      6 C18        118.1760   136.6950   146.6890 ca         1 H3U       0.029000
      7 C11        117.5520   135.9620   145.7170 ca         1 H3U      -0.278500
      8 S17        117.2660   134.2280   146.1690 s6         1 H3U       1.267100
      9 O23        115.8340   133.9980   145.9450 o          1 H3U      -0.714533
     10 O24        117.6660   134.1080   147.5770 o          1 H3U      -0.714533
     11 O25        118.1540   133.4420   145.2750 o          1 H3U      -0.714533
     12 C16        117.8490   138.7260   145.4740 ca         1 H3U       0.012000
     13 C10        117.1640   138.0200   144.4520 ca         1 H3U       0.004000
     14 C15        116.5680   138.7250   143.3680 ca         1 H3U      -0.200500
     15 S21        116.3780   140.5220   143.3680 s6         1 H3U       1.265100
     16 O28        115.6280   140.8210   144.5980 o          1 H3U      -0.705867
     17 O29        117.7450   141.0740   143.3610 o          1 H3U      -0.705867
     18 O30        115.6260   140.8270   142.1400 o          1 H3U      -0.705867
     19 C12        116.0650   138.0300   142.3060 ca         1 H3U      -0.089000
     20 C7         116.1490   136.6370   142.2680 ca         1 H3U      -0.164000
     21 C6         117.0990   136.5870   144.5040 ca         1 H3U       0.037000
     22 C3         116.6260   135.9090   143.3310 ca         1 H3U       0.059600
     23 N1         116.7000   134.5190   143.1960 ns         1 H3U      -0.471100
     24 C2         115.6750   133.7430   142.7510 c          1 H3U       0.690700
     25 O4         114.5920   134.1840   142.4070 o          1 H3U      -0.621100
     26 C5         115.9460   132.2750   142.7010 ca         1 H3U      -0.098600
     27 C8         117.2200   131.7210   142.7640 ca         1 H3U      -0.066000
     28 C9         114.8590   131.4150   142.5630 ca         1 H3U      -0.078000
     29 C14        115.0490   130.0460   142.5320 ca         1 H3U      -0.159000
     30 C20        116.3160   129.4750   142.6390 ca         1 H3U      -0.072300
     31 C27        116.4710   127.9860   142.6620 c3         1 H3U      -0.034800
     32 C13        117.4050   130.3440   142.7440 ca         1 H3U       0.020600
     33 N19        118.7210   129.8530   142.9110 ns         1 H3U      -0.471100
     34 C26        119.4100   129.1730   141.9670 c          1 H3U       0.676700
     35 O32        118.9330   128.8740   140.8850 o          1 H3U      -0.613100
     36 C33        120.8040   128.7850   142.3510 ca         1 H3U      -0.102600
     37 C37        121.3180   127.6150   141.8060 ca         1 H3U      -0.152000
     38 C38        121.5840   129.5640   143.2040 ca         1 H3U      -0.131000
     39 C40        122.8710   129.1430   143.5090 ca         1 H3U      -0.098000
     40 C42        123.3800   127.9670   142.9860 ca         1 H3U      -0.190000
     41 C39        122.6080   127.1800   142.1220 ca         1 H3U       0.123600
     42 N41        123.1270   126.0370   141.5560 nv         1 H3U      -0.834200
     43 H1         118.5230   136.2020   147.5850 ha         1 H3U       0.163000
     44 H2         117.9980   139.7900   145.3750 ha         1 H3U       0.172000
     45 H3         115.6250   138.5510   141.4670 ha         1 H3U       0.133000
     46 H4         115.8370   136.1270   141.3680 ha         1 H3U       0.106000
     47 H5         117.4410   134.0450   143.7140 hn         1 H3U       0.366500
     48 H6         118.1050   132.3410   142.8170 ha         1 H3U       0.170000
     49 H7         113.8580   131.8170   142.4960 ha         1 H3U       0.150000
     50 H8         114.1870   129.3950   142.4460 ha         1 H3U       0.107000
     51 H9         117.2590   127.6730   143.3470 hc         1 H3U       0.030700
     52 H10        115.5420   127.5080   142.9700 hc         1 H3U       0.030700
     53 H11        116.7290   127.6020   141.6750 hc         1 H3U       0.030700
     54 H12        119.1830   130.0870   143.7770 hn         1 H3U       0.339500
     55 H13        120.7060   127.0210   141.1380 ha         1 H3U       0.142000
     56 H14        121.2240   130.5010   143.6090 ha         1 H3U       0.164000
     57 H15        123.4890   129.7420   144.1640 ha         1 H3U       0.136000
     58 H16        124.3850   127.6520   143.2430 ha         1 H3U       0.117000
     59 H17        123.8870   125.6050   142.0570 hn         1 H3U       0.382800
     60 H18        122.4550   125.3600   141.2320 hn         1 H3U       0.382800
@<TRIPOS>BOND
     1     1     2 1   
     2     2     3 1   
     3     2     4 1   
     4     2     5 1   
     5     5     6 ar  
     6     5    12 ar  
     7     6     7 ar  
     8     6    43 1   
     9     7     8 1   
    10     7    21 ar  
    11     8     9 1   
    12     8    10 1   
    13     8    11 1   
    14    12    13 ar  
    15    12    44 1   
    16    13    14 ar  
    17    13    21 ar  
    18    14    15 1   
    19    14    19 ar  
    20    15    16 1   
    21    15    17 1   
    22    15    18 1   
    23    19    20 ar  
    24    19    45 1   
    25    20    22 ar  
    26    20    46 1   
    27    21    22 ar  
    28    22    23 1   
    29    23    24 1   
    30    23    47 1   
    31    24    25 2   
    32    24    26 1   
    33    26    27 ar  
    34    26    28 ar  
    35    27    32 ar  
    36    27    48 1   
    37    28    29 ar  
    38    28    49 1   
    39    29    30 ar  
    40    29    50 1   
    41    30    31 1   
    42    30    32 ar  
    43    31    51 1   
    44    31    52 1   
    45    31    53 1   
    46    32    33 1   
    47    33    34 1   
    48    33    54 1   
    49    34    35 2   
    50    34    36 1   
    51    36    37 ar  
    52    36    38 ar  
    53    37    41 ar  
    54    37    55 1   
    55    38    39 ar  
    56    38    56 1   
    57    39    40 ar  
    58    39    57 1   
    59    40    41 ar  
    60    40    58 1   
    61    41    42 1   
    62    42    59 1   
    63    42    60 1   
@<TRIPOS>SUBSTRUCTURE
     1 H3U         1 TEMP              0 ****  ****    0 ROOT
