@<TRIPOS>MOLECULE
H3U
   60    63     1     0     0
SMALL
No Charge or Current Charge


@<TRIPOS>ATOM
      1 O35        118.1230   139.4440   148.7730 o          1 H3U      -0.712867
      2 S31        119.2620   139.1440   147.8930 s6         1 H3U       1.278100
      3 O36        120.2500   138.1970   148.4320 o          1 H3U      -0.712867
      4 O34        119.8010   140.2840   147.1360 o          1 H3U      -0.712867
      5 C22        118.4390   138.1440   146.5750 ca         1 H3U      -0.259500
      6 C18        118.2880   136.7670   146.7340 ca         1 H3U       0.047000
      7 C11        117.6520   135.9630   145.7590 ca         1 H3U      -0.278500
      8 S17        117.5130   134.1480   146.2200 s6         1 H3U       1.267100
      9 O23        116.0640   133.9220   146.1320 o          1 H3U      -0.714533
     10 O24        118.0780   134.0750   147.5740 o          1 H3U      -0.714533
     11 O25        118.3210   133.5210   145.1670 o          1 H3U      -0.714533
     12 C16        117.9240   138.7590   145.4330 ca         1 H3U       0.030000
     13 C10        117.2840   138.0180   144.4100 ca         1 H3U       0.004000
     14 C15        116.7750   138.7080   143.2590 ca         1 H3U      -0.200500
     15 S21        116.8770   140.5710   143.0290 s6         1 H3U       1.265100
     16 O28        116.1620   141.0610   144.2170 o          1 H3U      -0.705867
     17 O29        118.3310   140.7930   143.0290 o          1 H3U      -0.705867
     18 O30        116.2010   140.7980   141.7420 o          1 H3U      -0.705867
     19 C12        116.1690   137.9600   142.2380 ca         1 H3U      -0.071000
     20 C7         116.0640   136.5790   142.3320 ca         1 H3U      -0.146000
     21 C6         117.1580   136.5850   144.5430 ca         1 H3U       0.037000
     22 C3         116.5340   135.8780   143.4540 ca         1 H3U      -0.033000
     23 N1         116.4160   134.4670   143.3750 ns         1 H3U      -0.145000
     24 C2         115.3800   133.6710   142.9020 c          1 H3U       0.623700
     25 O4         114.2920   134.1330   142.5640 o          1 H3U      -0.621100
     26 C5         115.6610   132.1820   142.8060 ca         1 H3U      -0.098600
     27 C8         116.9730   131.6580   142.8670 ca         1 H3U      -0.048000
     28 C9         114.5890   131.2830   142.6250 ca         1 H3U      -0.060000
     29 C14        114.8190   129.9010   142.5460 ca         1 H3U      -0.141000
     30 C20        116.1220   129.3790   142.6270 ca         1 H3U      -0.072300
     31 C27        116.2990   127.8620   142.6030 c3         1 H3U      -0.034800
     32 C13        117.2120   130.2740   142.7640 ca         1 H3U      -0.072000
     33 N19        118.5610   129.8350   142.8420 ns         1 H3U      -0.145000
     34 C26        119.2930   129.0260   141.9840 c          1 H3U       0.609700
     35 O32        118.8380   128.6240   140.9160 o          1 H3U      -0.613100
     36 C33        120.7080   128.6840   142.4270 ca         1 H3U      -0.102600
     37 C37        121.5240   127.8760   141.5980 ca         1 H3U      -0.134000
     38 C38        121.2490   129.1460   143.6550 ca         1 H3U      -0.113000
     39 C40        122.5610   128.8070   144.0300 ca         1 H3U      -0.080000
     40 C42        123.3510   128.0060   143.1910 ca         1 H3U      -0.172000
     41 C39        122.8330   127.5390   141.9760 ca         1 H3U       0.262000
     42 N41        123.6080   126.7560   141.1630 nv         1 H3U      -1.083000
     43 H1         118.6760   136.3330   147.6510 ha         1 H3U       0.145000
     44 H2         118.0410   139.8330   145.3650 ha         1 H3U       0.154000
     45 H3         115.7830   138.4400   141.3420 ha         1 H3U       0.115000
     46 H4         115.6230   136.0470   141.4930 ha         1 H3U       0.088000
     47 H5         117.2160   133.9590   143.7320 hn         1 H3U       0.200000
     48 H6         117.8290   132.3210   142.9630 ha         1 H3U       0.152000
     49 H7         113.5670   131.6530   142.5650 ha         1 H3U       0.132000
     50 H8         113.9710   129.2290   142.4320 ha         1 H3U       0.089000
     51 H9         117.1450   127.5380   143.2200 hc         1 H3U       0.030700
     52 H10        115.4100   127.3540   142.9940 hc         1 H3U       0.030700
     53 H11        116.4590   127.4990   141.5810 hc         1 H3U       0.030700
     54 H12        119.0650   130.1670   143.6530 hn         1 H3U       0.173000
     55 H13        121.1370   127.5060   140.6520 ha         1 H3U       0.124000
     56 H14        120.6690   129.7680   144.3330 ha         1 H3U       0.146000
     57 H15        122.9650   129.1680   144.9740 ha         1 H3U       0.118000
     58 H16        124.3640   127.7500   143.4900 ha         1 H3U       0.099000
     59 H17        124.5100   126.4160   141.4910 hn         1 H3U       0.438000
     60 H18        123.2030   126.3120   140.3400 hn         1 H3U       0.438000
@<TRIPOS>BOND
     1     1     2 1   
     2     2     3 1   
     3     2     4 1   
     4     2     5 1   
     5     5     6 ar  
     6     5    12 ar  
     7     6     7 ar  
     8     6    43 1   
     9     7     8 1   
    10     7    21 ar  
    11     8     9 1   
    12     8    10 1   
    13     8    11 1   
    14    12    13 ar  
    15    12    44 1   
    16    13    14 ar  
    17    13    21 ar  
    18    14    15 1   
    19    14    19 ar  
    20    15    16 1   
    21    15    17 1   
    22    15    18 1   
    23    19    20 ar  
    24    19    45 1   
    25    20    22 ar  
    26    20    46 1   
    27    21    22 ar  
    28    22    23 1   
    29    23    24 1   
    30    23    47 1   
    31    24    25 2   
    32    24    26 1   
    33    26    27 ar  
    34    26    28 ar  
    35    27    32 ar  
    36    27    48 1   
    37    28    29 ar  
    38    28    49 1   
    39    29    30 ar  
    40    29    50 1   
    41    30    31 1   
    42    30    32 ar  
    43    31    51 1   
    44    31    52 1   
    45    31    53 1   
    46    32    33 1   
    47    33    34 1   
    48    33    54 1   
    49    34    35 2   
    50    34    36 1   
    51    36    37 ar  
    52    36    38 ar  
    53    37    41 ar  
    54    37    55 1   
    55    38    39 ar  
    56    38    56 1   
    57    39    40 ar  
    58    39    57 1   
    59    40    41 ar  
    60    40    58 1   
    61    41    42 1   
    62    42    59 1   
    63    42    60 1   
@<TRIPOS>SUBSTRUCTURE
     1 H3U         1 TEMP              0 ****  ****    0 ROOT
