@<TRIPOS>MOLECULE
H3V
   25    26     1     0     0
SMALL
No Charge or Current Charge


@<TRIPOS>ATOM
      1 N1          -1.1760    -0.6460     0.1290 ns         1 H3V      -0.487400
      2 C4          -2.9110     1.0810    -0.3160 cc         1 H3V      -0.237000
      3 C5          -4.0420     1.4030     0.3570 cd         1 H3V       0.171900
      4 C6           2.1530    -0.6720    -0.3460 ca         1 H3V      -0.076300
      5 C7           2.4480    -0.6990     1.0310 ca         1 H3V      -0.091000
      6 C8           3.5780    -0.0260     1.5280 ca         1 H3V      -0.108000
      7 C10          4.1290     0.7120    -0.7240 ca         1 H3V      -0.108000
      8 C1           0.9240    -1.3970    -0.8860 c3         1 H3V      -0.111100
      9 C2          -0.2920    -0.4630    -0.9090 c          1 H3V       0.612100
     10 C3          -2.3410     0.0250     0.4150 cc         1 H3V       0.401900
     11 O1          -4.1670     0.5890     1.4520 os         1 H3V      -0.060700
     12 N2          -3.0420    -0.3130     1.4790 nd         1 H3V      -0.437300
     13 O2          -0.4410     0.3800    -1.7810 o          1 H3V      -0.549100
     14 C9           4.4190     0.6790     0.6510 ca         1 H3V      -0.101000
     15 C11          2.9990     0.0390    -1.2210 ca         1 H3V      -0.091000
     16 H1          -0.9190    -1.3780     0.7760 hn         1 H3V       0.336500
     17 H2          -2.5350     1.5400    -1.2200 ha         1 H3V       0.178000
     18 H3          -4.8060     2.1490     0.1790 h4         1 H3V       0.058100
     19 H4           1.8040    -1.2420     1.7200 ha         1 H3V       0.110000
     20 H5           3.8010    -0.0510     2.5920 ha         1 H3V       0.114000
     21 H6           4.7780     1.2590    -1.4040 ha         1 H3V       0.114000
     22 H7           1.1200    -1.7380    -1.9090 hc         1 H3V       0.068700
     23 H8           0.7140    -2.2670    -0.2520 hc         1 H3V       0.068700
     24 H9           5.2930     1.2000     1.0350 ha         1 H3V       0.114000
     25 H10          2.7810     0.0720    -2.2860 ha         1 H3V       0.110000
@<TRIPOS>BOND
     1     1     9 1   
     2     1    10 1   
     3     1    16 1   
     4     2     3 2   
     5     2    10 1   
     6     2    17 1   
     7     3    11 1   
     8     3    18 1   
     9     4     5 ar  
    10     4     8 1   
    11     4    15 ar  
    12     5     6 ar  
    13     5    19 1   
    14     6    14 ar  
    15     6    20 1   
    16     7    14 ar  
    17     7    15 ar  
    18     7    21 1   
    19     8     9 1   
    20     8    22 1   
    21     8    23 1   
    22     9    13 2   
    23    10    12 2   
    24    11    12 1   
    25    14    24 1   
    26    15    25 1   
@<TRIPOS>SUBSTRUCTURE
     1 H3V         1 TEMP              0 ****  ****    0 ROOT
