@<TRIPOS>MOLECULE
H3V
   25    26     1     0     0
SMALL
abcg2


@<TRIPOS>ATOM
      1 N1          -1.4560    -0.8240    -0.0060 ns         1 H3V      -0.487400
      2 C4          -2.9570     1.2230    -0.0090 cc         1 H3V      -0.237000
      3 C5          -4.3070     1.2410    -0.0140 cd         1 H3V       0.171900
      4 C6           2.2580    -0.5840     0.0090 ca         1 H3V      -0.076300
      5 C7           2.8820    -0.2600     1.2100 ca         1 H3V      -0.091000
      6 C8           4.1200     0.3690     1.2190 ca         1 H3V      -0.108000
      7 C10          4.1340     0.3650    -1.1810 ca         1 H3V      -0.108000
      8 C1           0.9130    -1.2430     0.0020 c3         1 H3V      -0.111100
      9 C2          -0.2240    -0.2380    -0.0000 c          1 H3V       0.612100
     10 C3          -2.6670    -0.1700    -0.0090 cc         1 H3V       0.401900
     11 O1          -4.7900     0.0030    -0.0170 os         1 H3V      -0.060700
     12 N2          -3.7590    -0.8870    -0.0140 nd         1 H3V      -0.437300
     13 O2          -0.0610     0.9620     0.0020 o          1 H3V      -0.549100
     14 C9           4.7490     0.6860     0.0220 ca         1 H3V      -0.101000
     15 C11          2.8970    -0.2640    -1.1850 ca         1 H3V      -0.091000
     16 H1          -1.5030    -1.8330    -0.0060 hn         1 H3V       0.336500
     17 H2          -2.2840     2.0580    -0.0060 ha         1 H3V       0.178000
     18 H3          -5.0240     2.0460    -0.0160 h4         1 H3V       0.058100
     19 H4           2.4000    -0.5050     2.1490 ha         1 H3V       0.110000
     20 H5           4.5930     0.6100     2.1620 ha         1 H3V       0.114000
     21 H6           4.6190     0.6020    -2.1190 ha         1 H3V       0.114000
     22 H7           0.8010    -1.8900    -0.8730 hc         1 H3V       0.068700
     23 H8           0.7940    -1.8950     0.8730 hc         1 H3V       0.068700
     24 H9           5.7140     1.1760     0.0270 ha         1 H3V       0.114000
     25 H10          2.4260    -0.5120    -2.1290 ha         1 H3V       0.110000
@<TRIPOS>BOND
     1     1     9 1   
     2     1    10 1   
     3     1    16 1   
     4     2     3 2   
     5     2    10 1   
     6     2    17 1   
     7     3    11 1   
     8     3    18 1   
     9     4     5 ar  
    10     4     8 1   
    11     4    15 ar  
    12     5     6 ar  
    13     5    19 1   
    14     6    14 ar  
    15     6    20 1   
    16     7    14 ar  
    17     7    15 ar  
    18     7    21 1   
    19     8     9 1   
    20     8    22 1   
    21     8    23 1   
    22     9    13 2   
    23    10    12 2   
    24    11    12 1   
    25    14    24 1   
    26    15    25 1   
@<TRIPOS>SUBSTRUCTURE
     1 H3V         1 TEMP              0 ****  ****    0 ROOT
