@<TRIPOS>MOLECULE
H3W
   36    37     1     0     0
SMALL
bcc


@<TRIPOS>ATOM
      1 CAA          1.3560     3.2750    -0.5900 c3         1 H3W      -0.089100
      2 CAB         -0.0860     1.9220     1.7660 c3         1 H3W      -0.082100
      3 CAE          3.3540    -0.5010     0.9390 ca         1 H3W      -0.194250
      4 CAF          2.4150    -1.2430    -1.1390 ca         1 H3W      -0.194250
      5 CAG         -3.4670     0.0620    -0.7930 ca         1 H3W      -0.194250
      6 CAH         -2.5950    -1.4730     0.8280 ca         1 H3W      -0.194250
      7 CAI          2.2480     0.3170     1.1350 ca         1 H3W      -0.085750
      8 CAJ          1.3200    -0.4230    -0.9230 ca         1 H3W      -0.085750
      9 CAK         -2.3080     0.8240    -0.6830 ca         1 H3W      -0.085750
     10 CAL         -1.4510    -0.7030     0.9220 ca         1 H3W      -0.085750
     11 CAM          0.1010     2.4190    -0.6840 c3         1 H3W      -0.065400
     12 CAN          3.4460    -1.2880    -0.2030 ca         1 H3W       0.135600
     13 CAO         -3.6200    -1.0920    -0.0380 ca         1 H3W       0.135600
     14 CAP          1.2080     0.3770     0.2130 ca         1 H3W      -0.106800
     15 CAQ         -1.2750     0.4650     0.1740 ca         1 H3W      -0.106800
     16 CAR         -0.0030     1.2930     0.3680 c3         1 H3W       0.064600
     17 OAD         -4.7200    -1.8730    -0.1010 oh         1 H3W      -0.495600
     18 H1           1.4040     3.8320     0.3460 hc         1 H3W       0.034700
     19 H2           2.2640     2.6760    -0.6670 hc         1 H3W       0.034700
     20 H3           1.3720     4.0040    -1.4010 hc         1 H3W       0.034700
     21 H4           0.7730     2.5550     1.9920 hc         1 H3W       0.038033
     22 H5          -0.9770     2.5480     1.8310 hc         1 H3W       0.038033
     23 H6          -0.1560     1.1640     2.5470 hc         1 H3W       0.038033
     24 H7           4.1470    -0.5270     1.6760 ha         1 H3W       0.137500
     25 H8           2.4610    -1.8530    -2.0350 ha         1 H3W       0.137500
     26 H9          -4.2480     0.3780    -1.4760 ha         1 H3W       0.137500
     27 H10         -2.6960    -2.3730     1.4220 ha         1 H3W       0.137500
     28 H11          2.2210     0.9170     2.0340 ha         1 H3W       0.133250
     29 H12          0.5290    -0.4170    -1.6630 ha         1 H3W       0.133250
     30 H13         -2.2360     1.7120    -1.2960 ha         1 H3W       0.133250
     31 H14         -0.6680    -1.0280     1.5980 ha         1 H3W       0.133250
     32 H15         -0.7720     3.0710    -0.5900 hc         1 H3W       0.039200
     33 H16          0.0490     1.9800    -1.6850 hc         1 H3W       0.039200
     34 H17          4.4850    -2.5600    -1.1810 ho         1 H3W       0.424000
     35 H18         -5.3620    -1.4940    -0.7110 ho         1 H3W       0.424000
     36 OAC          4.5380    -2.0670    -0.3550 oh         1 H3W      -0.495600
@<TRIPOS>BOND
     1     1    11 1   
     2     1    18 1   
     3     1    19 1   
     4     1    20 1   
     5     2    16 1   
     6     2    21 1   
     7     2    22 1   
     8     2    23 1   
     9     3     7 ar  
    10     3    12 ar  
    11     3    24 1   
    12     4     8 ar  
    13     4    12 ar  
    14     4    25 1   
    15     5     9 ar  
    16     5    13 ar  
    17     5    26 1   
    18     6    10 ar  
    19     6    13 ar  
    20     6    27 1   
    21     7    14 ar  
    22     7    28 1   
    23     8    14 ar  
    24     8    29 1   
    25     9    15 ar  
    26     9    30 1   
    27    10    15 ar  
    28    10    31 1   
    29    11    16 1   
    30    11    32 1   
    31    11    33 1   
    32    12    36 1   
    33    13    17 1   
    34    14    16 1   
    35    15    16 1   
    36    17    35 1   
    37    34    36 1   
@<TRIPOS>SUBSTRUCTURE
     1 H3W         1 TEMP              0 ****  ****    0 ROOT
