@<TRIPOS>MOLECULE
H3W
   36    37     1     0     0
SMALL
No Charge or Current Charge


@<TRIPOS>ATOM
      1 CAA          1.4160     3.2950    -0.6850 c3         1 H3W      -0.089100
      2 CAB         -0.1140     1.9890     1.7950 c3         1 H3W      -0.082100
      3 CAE          3.3200    -0.5760     1.0090 ca         1 H3W      -0.176250
      4 CAF          2.4330    -1.2200    -1.1530 ca         1 H3W      -0.176250
      5 CAG         -3.4980     0.0220    -0.7690 ca         1 H3W      -0.176250
      6 CAH         -2.5480    -1.5380     0.8230 ca         1 H3W      -0.176250
      7 CAI          2.2270     0.2860     1.2090 ca         1 H3W      -0.067750
      8 CAJ          1.3380    -0.3600    -0.9580 ca         1 H3W      -0.067750
      9 CAK         -2.3610     0.8410    -0.6520 ca         1 H3W      -0.067750
     10 CAL         -1.4100    -0.7230     0.9440 ca         1 H3W      -0.067750
     11 CAM          0.0980     2.4820    -0.6900 c3         1 H3W      -0.065400
     12 CAN          3.4230    -1.3270    -0.1680 ca         1 H3W       0.135600
     13 CAO         -3.5900    -1.1670    -0.0330 ca         1 H3W       0.135600
     14 CAP          1.2150     0.4070     0.2230 ca         1 H3W      -0.106800
     15 CAQ         -1.2910     0.4790     0.2050 ca         1 H3W      -0.106800
     16 CAR         -0.0130     1.3420     0.3820 c3         1 H3W       0.064600
     17 OAD         -4.6910    -1.9630    -0.1440 oh         1 H3W      -0.534600
     18 H1           1.5550     3.8300     0.2610 hc         1 H3W       0.034700
     19 H2           2.2850     2.6480    -0.8510 hc         1 H3W       0.034700
     20 H3           1.3980     4.0410    -1.4880 hc         1 H3W       0.034700
     21 H4           0.7460     2.6290     2.0190 hc         1 H3W       0.038033
     22 H5          -1.0160     2.6090     1.8680 hc         1 H3W       0.038033
     23 H6          -0.1770     1.2240     2.5780 hc         1 H3W       0.038033
     24 H7           4.0890    -0.6580     1.7730 ha         1 H3W       0.119500
     25 H8           2.5010    -1.7990    -2.0700 ha         1 H3W       0.119500
     26 H9          -4.3050     0.3210    -1.4340 ha         1 H3W       0.119500
     27 H10         -2.6180    -2.4580     1.3970 ha         1 H3W       0.119500
     28 H11          2.1880     0.8520     2.1350 ha         1 H3W       0.115250
     29 H12          0.5770    -0.2930    -1.7330 ha         1 H3W       0.115250
     30 H13         -2.3360     1.7570    -1.2360 ha         1 H3W       0.115250
     31 H14         -0.6120    -1.0310     1.6170 ha         1 H3W       0.115250
     32 H15         -0.7290     3.1900    -0.5560 hc         1 H3W       0.039200
     33 H16         -0.0200     2.0510    -1.6920 hc         1 H3W       0.039200
     34 H17          4.3930    -2.5980    -1.2200 ho         1 H3W       0.463000
     35 H18         -5.3100    -1.5480    -0.7810 ho         1 H3W       0.463000
     36 OAC          4.4880    -2.1580    -0.3480 oh         1 H3W      -0.534600
@<TRIPOS>BOND
     1     1    11 1   
     2     1    18 1   
     3     1    19 1   
     4     1    20 1   
     5     2    16 1   
     6     2    21 1   
     7     2    22 1   
     8     2    23 1   
     9     3     7 ar  
    10     3    12 ar  
    11     3    24 1   
    12     4     8 ar  
    13     4    12 ar  
    14     4    25 1   
    15     5     9 ar  
    16     5    13 ar  
    17     5    26 1   
    18     6    10 ar  
    19     6    13 ar  
    20     6    27 1   
    21     7    14 ar  
    22     7    28 1   
    23     8    14 ar  
    24     8    29 1   
    25     9    15 ar  
    26     9    30 1   
    27    10    15 ar  
    28    10    31 1   
    29    11    16 1   
    30    11    32 1   
    31    11    33 1   
    32    12    36 1   
    33    13    17 1   
    34    14    16 1   
    35    15    16 1   
    36    17    35 1   
    37    34    36 1   
@<TRIPOS>SUBSTRUCTURE
     1 H3W         1 TEMP              0 ****  ****    0 ROOT
