@<TRIPOS>MOLECULE
H3X
   70    73     1     0     0
SMALL
No Charge or Current Charge


@<TRIPOS>ATOM
      1 CAA         -0.9110    18.7130   -27.9660 c3         1 H3X      -0.185400
      2 CAB         -1.6040    21.4020   -29.1020 c3         1 H3X       0.225000
      3 CAC         -2.8370    20.3980   -29.3090 c6         1 H3X      -0.073700
      4 CAD         -3.4380    19.6450   -28.0460 c6         1 H3X      -0.020000
      5 CAE         -2.4260    18.4800   -27.7010 c3         1 H3X      -0.071400
      6 CAF         -6.8350    18.4920   -25.3640 c3         1 H3X      -0.082100
      7 CAG         -4.9460    19.0110   -28.3910 c5         1 H3X       0.188000
      8 CAH        -10.5410    17.3050   -30.7270 c3         1 H3X       0.152900
      9 CAI         -7.9310    17.1400   -27.2730 c6         1 H3X      -0.032700
     10 CAJ         -3.9590    20.9910   -30.2410 c6         1 H3X      -0.068400
     11 CAK         -4.8510    19.8670   -30.8410 c6         1 H3X      -0.066400
     12 CAL         -4.9990    18.5990   -29.9380 c6         1 H3X      -0.070700
     13 CAO         -6.8340    18.2100   -26.9000 c5         1 H3X      -0.046800
     14 CAP        -10.2920    17.2980   -28.3280 c          1 H3X       0.608100
     15 CAQ         -6.2290    17.7780   -30.4240 c3         1 H3X      -0.093100
     16 CAR         -3.6040    20.5610   -26.7810 c3         1 H3X      -0.091100
     17 CAS         -2.0710    22.8730   -28.9180 c3         1 H3X      -0.102100
     18 CAT         -0.6030    21.3650   -30.2880 c3         1 H3X      -0.102100
     19 CAU         -7.7820    15.7860   -26.5190 c3         1 H3X      -0.091100
     20 CAV         -0.3960    20.0100   -27.3500 c          1 H3X       0.672100
     21 CAZ         -9.4500    19.2040   -27.0470 c          1 H3X       0.594300
     22 CBB         -9.4040    17.6860   -27.1510 c6         1 H3X      -0.221700
     23 CBC         -5.4010    17.8350   -27.3980 c5         1 H3X      -0.096400
     24 CBD         -7.1020    19.4870   -27.6670 c2         1 H3X       0.148900
     25 CBF         -8.3690    19.9420   -27.7550 ce         1 H3X      -0.264400
     26 OAN         -9.7610    17.5990   -29.5550 os         1 H3X      -0.449100
     27 OAW         -0.8190    21.2030   -27.8960 os         1 H3X      -0.476100
     28 OAX          0.2730    20.0000   -26.3270 o          1 H3X      -0.512000
     29 OAY        -11.4170    16.8470   -28.1690 o          1 H3X      -0.472000
     30 OBA        -10.4040    19.7770   -26.5350 o          1 H3X      -0.532100
     31 OBE         -5.9920    20.0360   -28.2330 os         1 H3X      -0.333100
     32 H1          -0.3500    17.8730   -27.5390 hc         1 H3X       0.069700
     33 H2          -0.7400    18.7170   -29.0440 hc         1 H3X       0.069700
     34 H3          -2.4220    19.6090   -29.9470 hc         1 H3X       0.047700
     35 H4          -2.5290    18.1990   -26.6460 hc         1 H3X       0.051200
     36 H5          -2.6990    17.5790   -28.2640 hc         1 H3X       0.051200
     37 H6          -6.4570    17.6330   -24.7970 hc         1 H3X       0.047033
     38 H7          -6.1930    19.3460   -25.1200 hc         1 H3X       0.047033
     39 H8          -7.8330    18.7230   -24.9770 hc         1 H3X       0.047033
     40 H9          -9.9910    17.5920   -31.6320 h1         1 H3X       0.050367
     41 H10        -10.7640    16.2310   -30.7900 h1         1 H3X       0.050367
     42 H11        -11.4900    17.8570   -30.7160 h1         1 H3X       0.050367
     43 H12         -7.7580    16.8720   -28.3200 hc         1 H3X       0.070700
     44 H13         -3.5870    21.6040   -31.0910 hc         1 H3X       0.054200
     45 H14         -4.5840    21.6760   -29.6510 hc         1 H3X       0.054200
     46 H15         -4.4400    19.5600   -31.8130 hc         1 H3X       0.047200
     47 H16         -5.8400    20.2940   -31.0600 hc         1 H3X       0.047200
     48 H17         -4.1360    17.9470   -30.1290 hc         1 H3X       0.049700
     49 H18         -9.7850    21.0080   -29.0210 hc         1 H3X       0.045033
     50 H19         -8.7110    22.0600   -28.0840 hc         1 H3X       0.045033
     51 H20         -8.1010    21.2050   -29.5090 hc         1 H3X       0.045033
     52 H21         -6.2520    16.7770   -29.9830 hc         1 H3X       0.042700
     53 H22         -7.1720    18.2870   -30.1950 hc         1 H3X       0.042700
     54 H23         -6.1960    17.6340   -31.5100 hc         1 H3X       0.042700
     55 H24         -4.1090    20.0230   -25.9720 hc         1 H3X       0.049367
     56 H25         -2.6640    20.9130   -26.3530 hc         1 H3X       0.049367
     57 H26         -4.2110    21.4460   -27.0020 hc         1 H3X       0.049367
     58 H27         -2.8270    22.9560   -28.1300 hc         1 H3X       0.051200
     59 H28         -1.2290    23.5180   -28.6410 hc         1 H3X       0.051200
     60 H29         -2.4980    23.2810   -29.8410 hc         1 H3X       0.051200
     61 H30          0.2380    22.0470   -30.1090 hc         1 H3X       0.051200
     62 H31         -0.1920    20.3630   -30.4470 hc         1 H3X       0.051200
     63 H32         -1.0930    21.6750   -31.2180 hc         1 H3X       0.051200
     64 H33         -8.4750    15.0370   -26.9200 hc         1 H3X       0.042367
     65 H34         -6.7700    15.3760   -26.6170 hc         1 H3X       0.042367
     66 H35         -7.9980    15.8890   -25.4490 hc         1 H3X       0.042367
     67 H36         -9.9120    17.3120   -26.2540 hc         1 H3X       0.100700
     68 H37         -5.3610    16.8580   -27.8880 hc         1 H3X       0.065200
     69 H38         -4.7250    17.7370   -26.5440 hc         1 H3X       0.065200
     70 CAM         -8.7630    21.1160   -28.6390 c3         1 H3X      -0.019900
@<TRIPOS>BOND
     1     1     5 1   
     2     1    20 1   
     3     1    32 1   
     4     1    33 1   
     5     2     3 1   
     6     2    17 1   
     7     2    18 1   
     8     2    27 1   
     9     3     4 1   
    10     3    10 1   
    11     3    34 1   
    12     4     5 1   
    13     4     7 1   
    14     4    16 1   
    15     5    35 1   
    16     5    36 1   
    17     6    13 1   
    18     6    37 1   
    19     6    38 1   
    20     6    39 1   
    21     7    12 1   
    22     7    23 1   
    23     7    31 1   
    24     8    26 1   
    25     8    40 1   
    26     8    41 1   
    27     8    42 1   
    28     9    13 1   
    29     9    19 1   
    30     9    22 1   
    31     9    43 1   
    32    10    11 1   
    33    10    44 1   
    34    10    45 1   
    35    11    12 1   
    36    11    46 1   
    37    11    47 1   
    38    12    15 1   
    39    12    48 1   
    40    13    23 1   
    41    13    24 1   
    42    14    22 1   
    43    14    26 1   
    44    14    29 2   
    45    15    52 1   
    46    15    53 1   
    47    15    54 1   
    48    16    55 1   
    49    16    56 1   
    50    16    57 1   
    51    17    58 1   
    52    17    59 1   
    53    17    60 1   
    54    18    61 1   
    55    18    62 1   
    56    18    63 1   
    57    19    64 1   
    58    19    65 1   
    59    19    66 1   
    60    20    27 1   
    61    20    28 2   
    62    21    22 1   
    63    21    25 1   
    64    21    30 2   
    65    22    67 1   
    66    23    68 1   
    67    23    69 1   
    68    24    25 2   
    69    24    31 1   
    70    25    70 1   
    71    49    70 1   
    72    50    70 1   
    73    51    70 1   
@<TRIPOS>SUBSTRUCTURE
     1 H3X         1 TEMP              0 ****  ****    0 ROOT
