@<TRIPOS>MOLECULE
H3X
   70    73     1     0     0
SMALL
abcg2


@<TRIPOS>ATOM
      1 CAA         -1.0300    18.5890   -28.0340 c3         1 H3X      -0.185400
      2 CAB         -1.6150    21.4050   -28.8510 c3         1 H3X       0.225000
      3 CAC         -2.7800    20.4410   -29.2340 c6         1 H3X      -0.073700
      4 CAD         -3.4480    19.6120   -28.0850 c6         1 H3X      -0.020000
      5 CAE         -2.5340    18.3840   -27.7980 c3         1 H3X      -0.071400
      6 CAF         -6.7460    18.5680   -25.6940 c3         1 H3X      -0.082100
      7 CAG         -4.8460    19.0570   -28.5590 c5         1 H3X       0.188000
      8 CAH        -11.3790    16.1730   -29.7650 c3         1 H3X       0.152900
      9 CAI         -7.9130    17.2910   -27.5740 c6         1 H3X      -0.032700
     10 CAJ         -3.8290    21.1570   -30.0890 c6         1 H3X      -0.068400
     11 CAK         -4.6640    20.1170   -30.8410 c6         1 H3X      -0.066400
     12 CAL         -4.8290    18.7890   -30.0760 c6         1 H3X      -0.070700
     13 CAO         -6.7870    18.2790   -27.2110 c5         1 H3X      -0.046800
     14 CAP        -10.4310    17.1400   -27.8240 c          1 H3X       0.608100
     15 CAQ         -6.0330    18.0330   -30.6330 c3         1 H3X      -0.093100
     16 CAR         -3.6630    20.4090   -26.7910 c3         1 H3X      -0.091100
     17 CAS         -2.0810    22.8050   -28.4570 c3         1 H3X      -0.102100
     18 CAT         -0.6190    21.5000   -30.0040 c3         1 H3X      -0.102100
     19 CAU         -7.7990    15.9430   -26.8700 c3         1 H3X      -0.091100
     20 CAV         -0.4740    19.7690   -27.2890 c          1 H3X       0.672100
     21 CAZ         -9.4130    19.3980   -27.8270 c          1 H3X       0.594300
     22 CBB         -9.2740    17.9610   -27.2930 c6         1 H3X      -0.221700
     23 CBC         -5.3760    17.8750   -27.7080 c5         1 H3X      -0.096400
     24 CBD         -7.0220    19.5670   -27.9460 c2         1 H3X       0.148900
     25 CBF         -8.2270    20.1430   -28.1770 ce         1 H3X      -0.264400
     26 OAN        -10.3240    16.9310   -29.1390 os         1 H3X      -0.449100
     27 OAW         -0.8270    21.0020   -27.6590 os         1 H3X      -0.476100
     28 OAX          0.2560    19.6560   -26.3230 o          1 H3X      -0.512000
     29 OAY        -11.3420    16.7150   -27.1510 o          1 H3X      -0.472000
     30 OBA        -10.5470    19.8620   -27.9710 o          1 H3X      -0.532100
     31 OBE         -5.8790    20.1070   -28.3620 os         1 H3X      -0.333100
     32 H1          -0.4960    17.7090   -27.6800 hc         1 H3X       0.069700
     33 H2          -0.8170    18.6950   -29.0960 hc         1 H3X       0.069700
     34 H3          -2.3330    19.7070   -29.9060 hc         1 H3X       0.047700
     35 H4          -2.6770    18.0630   -26.7660 hc         1 H3X       0.051200
     36 H5          -2.8260    17.5450   -28.4300 hc         1 H3X       0.051200
     37 H6          -6.4040    17.6820   -25.1580 hc         1 H3X       0.047033
     38 H7          -6.0540    19.3790   -25.4790 hc         1 H3X       0.047033
     39 H8          -7.7210    18.8550   -25.3050 hc         1 H3X       0.047033
     40 H9         -11.1150    16.1230   -30.8170 h1         1 H3X       0.050367
     41 H10        -11.4280    15.1740   -29.3350 h1         1 H3X       0.050367
     42 H11        -12.3340    16.6800   -29.6320 h1         1 H3X       0.050367
     43 H12         -7.8510    17.1220   -28.6500 hc         1 H3X       0.070700
     44 H13         -3.3490    21.8210   -30.8070 hc         1 H3X       0.054200
     45 H14         -4.4670    21.7770   -29.4600 hc         1 H3X       0.054200
     46 H15         -4.1980    19.8930   -31.8040 hc         1 H3X       0.047200
     47 H16         -5.6520    20.5290   -31.0590 hc         1 H3X       0.047200
     48 H17         -3.9440    18.1720   -30.2540 hc         1 H3X       0.049700
     49 H18         -9.0660    21.3980   -29.7040 hc         1 H3X       0.045033
     50 H19         -8.7980    22.2170   -28.1730 hc         1 H3X       0.045033
     51 H20         -7.4200    21.8370   -29.2130 hc         1 H3X       0.045033
     52 H21         -6.1240    17.0230   -30.2350 hc         1 H3X       0.042700
     53 H22         -6.9650    18.5680   -30.4390 hc         1 H3X       0.042700
     54 H23         -5.9280    17.9480   -31.7170 hc         1 H3X       0.042700
     55 H24         -4.1550    19.7800   -26.0510 hc         1 H3X       0.049367
     56 H25         -2.7250    20.7380   -26.3550 hc         1 H3X       0.049367
     57 H26         -4.2900    21.2830   -26.9540 hc         1 H3X       0.049367
     58 H27         -2.8120    22.7780   -27.6540 hc         1 H3X       0.051200
     59 H28         -1.2190    23.3850   -28.1260 hc         1 H3X       0.051200
     60 H29         -2.5220    23.3120   -29.3120 hc         1 H3X       0.051200
     61 H30          0.1720    22.2080   -29.7580 hc         1 H3X       0.051200
     62 H31         -0.1690    20.5300   -30.2180 hc         1 H3X       0.051200
     63 H32         -1.1230    21.8460   -30.9070 hc         1 H3X       0.051200
     64 H33         -8.5490    15.2470   -27.2500 hc         1 H3X       0.042367
     65 H34         -6.8190    15.4950   -27.0420 hc         1 H3X       0.042367
     66 H35         -7.9470    16.0380   -25.7930 hc         1 H3X       0.042367
     67 H36         -9.4320    18.0190   -26.2140 hc         1 H3X       0.100700
     68 H37         -5.4040    16.9630   -28.2980 hc         1 H3X       0.065200
     69 H38         -4.7340    17.6810   -26.8560 hc         1 H3X       0.065200
     70 CAM         -8.3810    21.4730   -28.8560 c3         1 H3X      -0.019900
@<TRIPOS>BOND
     1     1     5 1   
     2     1    20 1   
     3     1    32 1   
     4     1    33 1   
     5     2     3 1   
     6     2    17 1   
     7     2    18 1   
     8     2    27 1   
     9     3     4 1   
    10     3    10 1   
    11     3    34 1   
    12     4     5 1   
    13     4     7 1   
    14     4    16 1   
    15     5    35 1   
    16     5    36 1   
    17     6    13 1   
    18     6    37 1   
    19     6    38 1   
    20     6    39 1   
    21     7    12 1   
    22     7    23 1   
    23     7    31 1   
    24     8    26 1   
    25     8    40 1   
    26     8    41 1   
    27     8    42 1   
    28     9    13 1   
    29     9    19 1   
    30     9    22 1   
    31     9    43 1   
    32    10    11 1   
    33    10    44 1   
    34    10    45 1   
    35    11    12 1   
    36    11    46 1   
    37    11    47 1   
    38    12    15 1   
    39    12    48 1   
    40    13    23 1   
    41    13    24 1   
    42    14    22 1   
    43    14    26 1   
    44    14    29 2   
    45    15    52 1   
    46    15    53 1   
    47    15    54 1   
    48    16    55 1   
    49    16    56 1   
    50    16    57 1   
    51    17    58 1   
    52    17    59 1   
    53    17    60 1   
    54    18    61 1   
    55    18    62 1   
    56    18    63 1   
    57    19    64 1   
    58    19    65 1   
    59    19    66 1   
    60    20    27 1   
    61    20    28 2   
    62    21    22 1   
    63    21    25 1   
    64    21    30 2   
    65    22    67 1   
    66    23    68 1   
    67    23    69 1   
    68    24    25 2   
    69    24    31 1   
    70    25    70 1   
    71    49    70 1   
    72    50    70 1   
    73    51    70 1   
@<TRIPOS>SUBSTRUCTURE
     1 H3X         1 TEMP              0 ****  ****    0 ROOT
