@<TRIPOS>MOLECULE
H3Z
   22    22     1     0     0
SMALL
abcg2


@<TRIPOS>ATOM
      1 CAA          2.7760     0.2060    -1.2650 c3         1 H3Z      -0.084100
      2 CAB          2.8400     0.2280     1.2530 c3         1 H3Z      -0.084100
      3 CAD         -1.5770    -1.0940     0.1520 ca         1 H3Z      -0.174500
      4 CAE         -1.2740     1.2860     0.0740 ca         1 H3Z      -0.174500
      5 CAF         -0.1980    -1.2580     0.1140 ca         1 H3Z      -0.069000
      6 CAG          0.0980     1.1010     0.0370 ca         1 H3Z      -0.069000
      7 CAH         -2.1240     0.1840     0.1320 ca         1 H3Z       0.135100
      8 CAI          0.6680    -0.1720     0.0550 ca         1 H3Z      -0.110300
      9 CAJ          2.1670    -0.3650     0.0150 c3         1 H3Z      -0.010400
     10 H1           2.3210    -0.2370    -2.1520 hc         1 H3Z       0.034367
     11 H2           2.6380     1.2880    -1.3260 hc         1 H3Z       0.034367
     12 H3           3.8490     0.0120    -1.3030 hc         1 H3Z       0.034367
     13 H4           2.4360    -0.2040     2.1700 hc         1 H3Z       0.034367
     14 H5           3.9150     0.0400     1.2370 hc         1 H3Z       0.034367
     15 H6           2.6970     1.3090     1.3040 hc         1 H3Z       0.034367
     16 H7          -2.2210    -1.9660     0.1980 ha         1 H3Z       0.119000
     17 H8          -1.6910     2.2860     0.0600 ha         1 H3Z       0.119000
     18 H9           0.2060    -2.2650     0.1310 ha         1 H3Z       0.111000
     19 H10          0.7340     1.9770    -0.0060 ha         1 H3Z       0.111000
     20 H11          2.3540    -1.4430     0.0190 hc         1 H3Z       0.046700
     21 H12         -3.9380    -0.4200     0.1970 ho         1 H3Z       0.463000
     22 OAC         -3.4550     0.4130     0.1630 oh         1 H3Z      -0.536100
@<TRIPOS>BOND
     1     1     9 1   
     2     1    10 1   
     3     1    11 1   
     4     1    12 1   
     5     2     9 1   
     6     2    13 1   
     7     2    14 1   
     8     2    15 1   
     9     3     5 ar  
    10     3     7 ar  
    11     3    16 1   
    12     4     6 ar  
    13     4     7 ar  
    14     4    17 1   
    15     5     8 ar  
    16     5    18 1   
    17     6     8 ar  
    18     6    19 1   
    19     7    22 1   
    20     8     9 1   
    21     9    20 1   
    22    21    22 1   
@<TRIPOS>SUBSTRUCTURE
     1 H3Z         1 TEMP              0 ****  ****    0 ROOT
