@<TRIPOS>MOLECULE
H3Z
   22    22     1     0     0
SMALL
No Charge or Current Charge


@<TRIPOS>ATOM
      1 CAA          2.7870     0.1930    -1.2860 c3         1 H3Z      -0.084100
      2 CAB          2.8580     0.2400     1.2700 c3         1 H3Z      -0.084100
      3 CAD         -1.5990    -1.0920     0.1400 ca         1 H3Z      -0.174500
      4 CAE         -1.2930     1.3170     0.0870 ca         1 H3Z      -0.174500
      5 CAF         -0.2050    -1.2700     0.1040 ca         1 H3Z      -0.069000
      6 CAG          0.1020     1.1420     0.0510 ca         1 H3Z      -0.069000
      7 CAH         -2.1420     0.2030     0.1310 ca         1 H3Z       0.135100
      8 CAI          0.6580    -0.1550     0.0590 ca         1 H3Z      -0.110300
      9 CAJ          2.1740    -0.3590     0.0210 c3         1 H3Z      -0.010400
     10 H1           2.3030    -0.2620    -2.1580 hc         1 H3Z       0.034367
     11 H2           2.6640     1.2800    -1.3530 hc         1 H3Z       0.034367
     12 H3           3.8590    -0.0340    -1.3350 hc         1 H3Z       0.034367
     13 H4           2.4240    -0.1820     2.1840 hc         1 H3Z       0.034367
     14 H5           3.9310     0.0140     1.2680 hc         1 H3Z       0.034367
     15 H6           2.7380     1.3290     1.3040 hc         1 H3Z       0.034367
     16 H7          -2.2490    -1.9630     0.1740 ha         1 H3Z       0.119000
     17 H8          -1.7130     2.3200     0.0800 ha         1 H3Z       0.119000
     18 H9           0.2040    -2.2790     0.1110 ha         1 H3Z       0.111000
     19 H10          0.7480     2.0160     0.0170 ha         1 H3Z       0.111000
     20 H11          2.3860    -1.4360     0.0350 hc         1 H3Z       0.046700
     21 H12         -3.9220    -0.4980     0.1940 ho         1 H3Z       0.463000
     22 OAC         -3.4920     0.3830     0.1650 oh         1 H3Z      -0.536100
@<TRIPOS>BOND
     1     1     9 1   
     2     1    10 1   
     3     1    11 1   
     4     1    12 1   
     5     2     9 1   
     6     2    13 1   
     7     2    14 1   
     8     2    15 1   
     9     3     5 ar  
    10     3     7 ar  
    11     3    16 1   
    12     4     6 ar  
    13     4     7 ar  
    14     4    17 1   
    15     5     8 ar  
    16     5    18 1   
    17     6     8 ar  
    18     6    19 1   
    19     7    22 1   
    20     8     9 1   
    21     9    20 1   
    22    21    22 1   
@<TRIPOS>SUBSTRUCTURE
     1 H3Z         1 TEMP              0 ****  ****    0 ROOT
