@<TRIPOS>MOLECULE
H40
   41    42     1     0     0
SMALL
No Charge or Current Charge


@<TRIPOS>ATOM
      1 C1          -5.4670    -7.6810     3.6030 ca         1 H40       0.635900
      2 C2          -5.4440    -6.2830     3.4960 ca         1 H40      -0.236000
      3 C3          -4.3340    -5.5890     3.9970 ca         1 H40      -0.024000
      4 C11         -0.3630    -2.5630     3.6680 ca         1 H40      -0.171000
      5 C12         -1.7000    -2.7200     4.0710 ca         1 H40      -0.027500
      6 C13          0.1480    -3.2750     2.5670 ca         1 H40       0.018000
      7 C17         -8.5700    -7.8360     4.4060 c3         1 H40       0.126600
      8 C20          2.2960    -3.5280     1.1770 c          1 H40       0.607100
      9 C21          3.7510    -3.0370     1.2150 c3         1 H40      -0.159400
     10 C23          4.7280    -4.1670     1.6130 c3         1 H40      -0.077100
     11 C4          -3.3060    -6.3480     4.5800 ca         1 H40      -0.211000
     12 C5          -3.4300    -7.7450     4.6220 ca         1 H40       0.478200
     13 N6          -4.4960    -8.4140     4.1380 nb         1 H40      -0.737000
     14 S7          -4.2450    -3.8030     3.8950 ss         1 H40       0.065000
     15 C8          -2.5430    -3.6010     3.3740 ca         1 H40      -0.185000
     16 C9          -2.0450    -4.3160     2.2700 ca         1 H40      -0.027500
     17 C10         -0.7070    -4.1570     1.8700 ca         1 H40      -0.171000
     18 N14         -6.4790    -8.4690     3.1430 nu         1 H40      -0.920100
     19 Br1         -2.0460    -8.8110     5.3950 br         1 H40      -0.175200
     20 O18         -8.5450    -9.0260     5.2180 oh         1 H40      -0.659000
     21 O22          1.8880    -4.2390     0.2660 o          1 H40      -0.564100
     22 H1          -6.2650    -5.7480     3.0320 ha         1 H40       0.129000
     23 H2           0.2790    -1.8790     4.2200 ha         1 H40       0.133000
     24 H3          -2.0790    -2.1620     4.9250 ha         1 H40       0.128500
     25 H4          -7.9950    -7.1660     2.4140 h1         1 H40       0.061200
     26 H5          -8.4580    -8.8670     2.5020 h1         1 H40       0.061200
     27 H6          -8.0500    -7.0150     4.9180 h1         1 H40       0.028700
     28 H7          -9.6080    -7.5150     4.2410 h1         1 H40       0.028700
     29 H8           3.8570    -2.2220     1.9410 hc         1 H40       0.058700
     30 H9           4.0290    -2.6800     0.2160 hc         1 H40       0.058700
     31 H10          5.7590    -3.7940     1.6310 hc         1 H40       0.045700
     32 H11          4.4860    -4.5570     2.6090 hc         1 H40       0.045700
     33 H12          4.6770    -4.9960     0.8960 hc         1 H40       0.045700
     34 H13         -2.4210    -5.8720     4.9920 ha         1 H40       0.148000
     35 H14         -2.6930    -4.9980     1.7230 ha         1 H40       0.128500
     36 H15         -0.3570    -4.7330     1.0200 ha         1 H40       0.133000
     37 H16         -6.3150    -9.4280     3.4360 hn         1 H40       0.508000
     38 H17         -8.9520    -8.7950     6.0840 ho         1 H40       0.447000
     39 H18          2.0050    -2.4680     2.8750 hn         1 H40       0.150000
     40 N19          1.5120    -3.0650     2.2250 ns         1 H40      -0.154000
     41 C16         -7.9000    -8.0760     3.0220 c3         1 H40       0.226800
@<TRIPOS>BOND
     1     1     2 ar  
     2     1    13 ar  
     3     1    18 1   
     4     2     3 ar  
     5     2    22 1   
     6     3    11 ar  
     7     3    14 1   
     8     4     5 ar  
     9     4     6 ar  
    10     4    23 1   
    11     5    15 ar  
    12     5    24 1   
    13     6    17 ar  
    14     6    40 1   
    15     7    20 1   
    16     7    27 1   
    17     7    28 1   
    18     7    41 1   
    19     8     9 1   
    20     8    21 2   
    21     8    40 1   
    22     9    10 1   
    23     9    29 1   
    24     9    30 1   
    25    10    31 1   
    26    10    32 1   
    27    10    33 1   
    28    11    12 ar  
    29    11    34 1   
    30    12    13 ar  
    31    12    19 1   
    32    14    15 1   
    33    15    16 ar  
    34    16    17 ar  
    35    16    35 1   
    36    17    36 1   
    37    18    37 1   
    38    18    41 1   
    39    20    38 1   
    40    25    41 1   
    41    26    41 1   
    42    39    40 1   
@<TRIPOS>SUBSTRUCTURE
     1 H40         1 TEMP              0 ****  ****    0 ROOT
