@<TRIPOS>MOLECULE
H40
   41    42     1     0     0
SMALL
bcc


@<TRIPOS>ATOM
      1 C1          -5.7900    -7.9810     3.7430 ca         1 H40       0.701200
      2 C2          -5.6400    -6.6750     3.2520 ca         1 H40      -0.319300
      3 C3          -4.3620    -6.1560     3.1280 ca         1 H40       0.102900
      4 C11         -0.5870    -3.2380     3.6230 ca         1 H40      -0.189000
      5 C12         -1.9350    -3.5360     3.6150 ca         1 H40      -0.045500
      6 C13          0.2340    -3.5860     2.5440 ca         1 H40       0.110600
      7 C17         -8.6290    -7.0720     4.9610 c3         1 H40       0.103400
      8 C20          2.6010    -3.4670     1.7660 c          1 H40       0.674100
      9 C21          3.9190    -2.8800     2.2250 c3         1 H40      -0.159400
     10 C23          5.0820    -3.2080     1.3080 c3         1 H40      -0.077100
     11 C4          -3.2540    -6.9230     3.4950 ca         1 H40      -0.294300
     12 C5          -3.5420    -8.1880     3.9690 ca         1 H40       0.543500
     13 N6          -4.7280    -8.7190     4.0990 nb         1 H40      -0.737000
     14 S7          -4.2340    -4.5210     2.4890 ss         1 H40      -0.188800
     15 C8          -2.5000    -4.1910     2.5250 ca         1 H40      -0.058100
     16 C9          -1.6910    -4.5320     1.4480 ca         1 H40      -0.045500
     17 C10         -0.3360    -4.2430     1.4490 ca         1 H40      -0.189000
     18 N14         -6.9910    -8.5890     3.8620 nu         1 H40      -0.864900
     19 BR1         -2.0880    -9.2980     4.4950 br         1 H40      -0.175200
     20 O18         -8.7070    -7.9100     6.0910 oh         1 H40      -0.596800
     21 O22          2.4710    -4.0750     0.7230 o          1 H40      -0.564100
     22 H1          -6.4990    -6.0810     2.9710 ha         1 H40       0.147000
     23 H2          -0.1610    -2.7270     4.4790 ha         1 H40       0.151000
     24 H3          -2.5480    -3.2580     4.4630 ha         1 H40       0.146500
     25 H4          -8.2950    -7.3040     2.8580 h1         1 H40       0.061200
     26 H5          -9.0240    -8.6950     3.6130 h1         1 H40       0.061200
     27 H6          -7.8800    -6.2820     5.0940 h1         1 H40       0.028700
     28 H7          -9.5840    -6.5740     4.7490 h1         1 H40       0.028700
     29 H8           4.1220    -3.2300     3.2410 hc         1 H40       0.058700
     30 H9           3.7950    -1.7960     2.3090 hc         1 H40       0.058700
     31 H10          5.9950    -2.7570     1.6940 hc         1 H40       0.045700
     32 H11          5.2490    -4.2820     1.2370 hc         1 H40       0.045700
     33 H12          4.9240    -2.8250     0.3010 hc         1 H40       0.045700
     34 H13         -2.2430    -6.5540     3.4180 ha         1 H40       0.166000
     35 H14         -2.1200    -5.0340     0.5910 ha         1 H40       0.146500
     36 H15          0.2610    -4.5270     0.5990 ha         1 H40       0.151000
     37 H16         -6.9730    -9.4760     4.3410 hn         1 H40       0.452800
     38 H17         -8.8450    -7.3590     6.8660 ho         1 H40       0.408000
     39 H18          1.8240    -2.7320     3.4790 hn         1 H40       0.316500
     40 N19          1.5770    -3.2370     2.6400 ns         1 H40      -0.480100
     41 C16         -8.2670    -7.9240     3.7560 c3         1 H40       0.226800
@<TRIPOS>BOND
     1     1     2 ar  
     2     1    13 ar  
     3     1    18 1   
     4     2     3 ar  
     5     2    22 1   
     6     3    11 ar  
     7     3    14 1   
     8     4     5 ar  
     9     4     6 ar  
    10     4    23 1   
    11     5    15 ar  
    12     5    24 1   
    13     6    17 ar  
    14     6    40 1   
    15     7    20 1   
    16     7    27 1   
    17     7    28 1   
    18     7    41 1   
    19     8     9 1   
    20     8    21 2   
    21     8    40 1   
    22     9    10 1   
    23     9    29 1   
    24     9    30 1   
    25    10    31 1   
    26    10    32 1   
    27    10    33 1   
    28    11    12 ar  
    29    11    34 1   
    30    12    13 ar  
    31    12    19 1   
    32    14    15 1   
    33    15    16 ar  
    34    16    17 ar  
    35    16    35 1   
    36    17    36 1   
    37    18    37 1   
    38    18    41 1   
    39    20    38 1   
    40    25    41 1   
    41    26    41 1   
    42    39    40 1   
@<TRIPOS>SUBSTRUCTURE
     1 H40         1 TEMP              0 ****  ****    0 ROOT
