@<TRIPOS>MOLECULE
H41
   55    57     1     0     0
SMALL
abcg2


@<TRIPOS>ATOM
      1 C4           2.1920    -2.0100    -0.2720 ca         1 H41      -0.068000
      2 C5           3.0780    -3.0450    -0.4980 ca         1 H41       0.109000
      3 CL10         2.4940    -4.5250    -1.1540 cl         1 H41      -0.162000
      4 C6           4.4310    -2.8880    -0.2000 ca         1 H41       0.130000
      5 CL7          5.5430    -4.1670    -0.4780 cl         1 H41      -0.159000
      6 C8           4.8820    -1.6890     0.3260 ca         1 H41      -0.102000
      7 C9           3.9950    -0.6510     0.5530 ca         1 H41      -0.075000
      8 C3           2.6410    -0.8000     0.2590 ca         1 H41      -0.112900
      9 C2           1.7070     0.2910     0.5010 ce         1 H41       0.374900
     10 N11          0.4450     0.1540     0.3580 n2         1 H41      -0.396400
     11 C1           2.1080     1.6960     0.8940 c5         1 H41       0.028400
     12 N29          2.8700     2.3550    -0.1500 n          1 H41      -0.415800
     13 C34          2.4410     2.2460    -1.5410 c3         1 H41       0.099000
     14 C35          1.3640     3.2370    -1.9640 c3         1 H41      -0.121100
     15 C30          3.8830     3.1790     0.2370 c          1 H41       0.597100
     16 O33          4.1770     3.3490     1.4060 o          1 H41      -0.559100
     17 C31          4.6640     3.8720    -0.8690 c3         1 H41       0.088600
     18 O32          5.6020     4.7130    -0.2700 oh         1 H41      -0.622000
     19 C13          0.7370     2.3110     1.2140 c5         1 H41       0.201800
     20 N12         -0.1690     1.3260     0.6340 nh         1 H41      -0.467700
     21 C14         -1.5150     1.4290     0.5830 c2         1 H41       0.956100
     22 N26         -1.9980     2.6110     0.8630 ne         1 H41      -0.640700
     23 C27         -3.2610     2.8750     1.0510 cg         1 H41       0.430000
     24 N28         -4.3400     3.2500     1.2660 n1         1 H41      -0.525000
     25 N15         -2.1910     0.3170     0.2560 nu         1 H41      -0.955200
     26 C16         -3.5370     0.2950    -0.1760 ca         1 H41       0.270000
     27 C21         -4.4560    -0.4700     0.5270 ca         1 H41      -0.101000
     28 C17         -3.9240     1.0070    -1.3040 ca         1 H41      -0.106000
     29 C18         -5.2490     0.9770    -1.7070 ca         1 H41      -0.085000
     30 C19         -6.1810     0.2190    -1.0140 ca         1 H41      -0.093000
     31 C20         -5.7710    -0.5030     0.0960 ca         1 H41       0.101100
     32 O22         -6.7040    -1.2100     0.8320 os         1 H41      -0.387100
     33 C23         -6.9170    -2.5080     0.5060 c3         1 H41       0.385300
     34 F25         -7.3110    -2.6320    -0.7830 f          1 H41      -0.135000
     35 F24         -5.7770    -3.2330     0.6070 f          1 H41      -0.135000
     36 H4           1.1460    -2.1460    -0.5090 ha         1 H41       0.144000
     37 H8           5.9300    -1.5650     0.5590 ha         1 H41       0.139000
     38 H9           4.3780     0.2680     0.9740 ha         1 H41       0.135000
     39 H1           2.7230     1.6900     1.7920 h1         1 H41       0.118700
     40 H131         0.5760     2.3690     2.2920 h1         1 H41       0.090700
     41 H132         0.5920     3.3000     0.7880 h1         1 H41       0.090700
     42 H341         3.3120     2.3490    -2.1850 h1         1 H41       0.052700
     43 H342         2.0910     1.2290    -1.7190 h1         1 H41       0.052700
     44 H351         1.2180     3.1680    -3.0420 hc         1 H41       0.048700
     45 H352         0.4030     3.0300    -1.4950 hc         1 H41       0.048700
     46 H353         1.6440     4.2640    -1.7300 hc         1 H41       0.048700
     47 H311         5.1370     3.1040    -1.4970 h1         1 H41       0.037200
     48 H312         3.9700     4.4200    -1.5180 h1         1 H41       0.037200
     49 H32          6.0980     5.1390    -0.9760 ho         1 H41       0.448000
     50 H15         -1.6570    -0.5390     0.1910 hn         1 H41       0.524000
     51 H21         -4.1500    -1.0030     1.4180 ha         1 H41       0.140000
     52 H17         -3.1980     1.5880    -1.8580 ha         1 H41       0.128000
     53 H18         -5.5590     1.5380    -2.5780 ha         1 H41       0.126000
     54 H19         -7.2170     0.2040    -1.3240 ha         1 H41       0.136000
     55 H23         -7.6760    -2.9160     1.1680 h3         1 H41       0.107700
@<TRIPOS>BOND
     1     1     2 ar  
     2     1     8 ar  
     3     1    36 1   
     4     2     3 1   
     5     2     4 ar  
     6     4     5 1   
     7     4     6 ar  
     8     6     7 ar  
     9     6    37 1   
    10     7     8 ar  
    11     7    38 1   
    12     8     9 1   
    13     9    10 2   
    14     9    11 1   
    15    10    20 1   
    16    11    12 1   
    17    11    19 1   
    18    11    39 1   
    19    12    13 1   
    20    12    15 1   
    21    13    14 1   
    22    13    42 1   
    23    13    43 1   
    24    14    44 1   
    25    14    45 1   
    26    14    46 1   
    27    15    16 2   
    28    15    17 1   
    29    17    18 1   
    30    17    47 1   
    31    17    48 1   
    32    18    49 1   
    33    19    20 1   
    34    19    40 1   
    35    19    41 1   
    36    20    21 1   
    37    21    22 2   
    38    21    25 1   
    39    22    23 1   
    40    23    24 3   
    41    25    26 1   
    42    25    50 1   
    43    26    27 ar  
    44    26    28 ar  
    45    27    31 ar  
    46    27    51 1   
    47    28    29 ar  
    48    28    52 1   
    49    29    30 ar  
    50    29    53 1   
    51    30    31 ar  
    52    30    54 1   
    53    31    32 1   
    54    32    33 1   
    55    33    34 1   
    56    33    35 1   
    57    33    55 1   
@<TRIPOS>SUBSTRUCTURE
     1 H41         1 TEMP              0 ****  ****    0 ROOT
