@<TRIPOS>MOLECULE
H41
   55    57     1     0     0
SMALL
No Charge or Current Charge


@<TRIPOS>ATOM
      1 C4           2.5540    -2.3290     0.1900 ca         1 H41      -0.068000
      2 C5           3.4880    -3.3390    -0.0980 ca         1 H41       0.109000
      3 Cl10         2.9300    -5.0070    -0.2350 cl         1 H41      -0.162000
      4 C6           4.8480    -3.0120    -0.2720 ca         1 H41       0.130000
      5 Cl7          6.0470    -4.2540    -0.6350 cl         1 H41      -0.159000
      6 C8           5.2620    -1.6750    -0.1600 ca         1 H41      -0.102000
      7 C9           4.3270    -0.6640     0.1280 ca         1 H41      -0.075000
      8 C3           2.9630    -0.9810     0.3110 ca         1 H41      -0.112900
      9 C2           1.9700     0.0990     0.6040 ce         1 H41       0.374900
     10 N11          0.7000    -0.1080     0.7070 n2         1 H41      -0.396400
     11 C1           2.3060     1.5530     0.9790 c5         1 H41       0.028400
     12 N29          2.5560     2.4380    -0.2270 n          1 H41      -0.415800
     13 C34          2.0280     2.1160    -1.5870 c3         1 H41       0.099000
     14 C35          0.6370     2.7170    -1.8660 c3         1 H41      -0.121100
     15 C30          3.4160     3.5630    -0.0450 c          1 H41       0.597100
     16 O33          3.8960     3.7920     1.0620 o          1 H41      -0.559100
     17 C31          3.7170     4.5090    -1.2610 c3         1 H41       0.088600
     18 O32          4.4340     5.7210    -0.9120 oh         1 H41      -0.622000
     19 C13          0.9470     2.0430     1.6100 c5         1 H41       0.201800
     20 N12          0.0170     0.9770     1.1700 nh         1 H41      -0.467700
     21 C14         -1.3210     1.0070     1.5660 c2         1 H41       0.956100
     22 N26         -1.8430     1.9690     2.2450 ne         1 H41      -0.640700
     23 C27         -3.0950     2.0290     2.6510 cg         1 H41       0.430000
     24 N28         -4.1620     2.2010     3.0830 n1         1 H41      -0.525000
     25 N15         -1.9660    -0.0810     1.0670 nu         1 H41      -0.955200
     26 C16         -3.0420    -0.1040     0.1900 ca         1 H41       0.270000
     27 C21         -4.3520    -0.2720     0.6640 ca         1 H41      -0.101000
     28 C17         -2.8120     0.0100    -1.1900 ca         1 H41      -0.106000
     29 C18         -3.8900    -0.0200    -2.0910 ca         1 H41      -0.085000
     30 C19         -5.2030    -0.1750    -1.6130 ca         1 H41      -0.093000
     31 C20         -5.4400    -0.3060    -0.2250 ca         1 H41       0.101100
     32 O22         -6.7000    -0.4720     0.3240 os         1 H41      -0.387100
     33 C23         -7.9230    -0.5270    -0.4440 c3         1 H41       0.385300
     34 F25         -8.1110     0.6110    -1.1530 f          1 H41      -0.135000
     35 F24         -7.9050    -1.5530    -1.3260 f          1 H41      -0.135000
     36 H4           1.5100    -2.6030     0.3200 ha         1 H41       0.144000
     37 H8           6.3100    -1.4210    -0.2990 ha         1 H41       0.139000
     38 H9           4.6720     0.3650     0.2020 ha         1 H41       0.135000
     39 H1           3.1230     1.5840     1.7100 h1         1 H41       0.118700
     40 H131         1.0120     2.0800     2.7060 h1         1 H41       0.090700
     41 H132         0.6460     3.0370     1.2530 h1         1 H41       0.090700
     42 H341         2.7270     2.4530    -2.3610 h1         1 H41       0.052700
     43 H342         1.9630     1.0290    -1.7130 h1         1 H41       0.052700
     44 H351         0.3310     2.4960    -2.8950 hc         1 H41       0.048700
     45 H352        -0.1180     2.2960    -1.1940 hc         1 H41       0.048700
     46 H353         0.6450     3.8050    -1.7370 hc         1 H41       0.048700
     47 H311         4.2970     3.9290    -1.9910 h1         1 H41       0.037200
     48 H312         2.7600     4.7680    -1.7290 h1         1 H41       0.037200
     49 H32          4.5740     6.2300    -1.7430 ho         1 H41       0.448000
     50 H15         -1.1830    -0.6200     0.7060 hn         1 H41       0.524000
     51 H21         -4.5290    -0.3850     1.7290 ha         1 H41       0.140000
     52 H17         -1.7990     0.1310    -1.5660 ha         1 H41       0.128000
     53 H18         -3.7070     0.0750    -3.1590 ha         1 H41       0.126000
     54 H19         -6.0140    -0.1960    -2.3340 ha         1 H41       0.136000
     55 H23         -8.7810    -0.6620     0.2240 h3         1 H41       0.107700
@<TRIPOS>BOND
     1     1     2 ar  
     2     1     8 ar  
     3     1    36 1   
     4     2     3 1   
     5     2     4 ar  
     6     4     5 1   
     7     4     6 ar  
     8     6     7 ar  
     9     6    37 1   
    10     7     8 ar  
    11     7    38 1   
    12     8     9 1   
    13     9    10 2   
    14     9    11 1   
    15    10    20 1   
    16    11    12 1   
    17    11    19 1   
    18    11    39 1   
    19    12    13 1   
    20    12    15 1   
    21    13    14 1   
    22    13    42 1   
    23    13    43 1   
    24    14    44 1   
    25    14    45 1   
    26    14    46 1   
    27    15    16 2   
    28    15    17 1   
    29    17    18 1   
    30    17    47 1   
    31    17    48 1   
    32    18    49 1   
    33    19    20 1   
    34    19    40 1   
    35    19    41 1   
    36    20    21 1   
    37    21    22 2   
    38    21    25 1   
    39    22    23 1   
    40    23    24 3   
    41    25    26 1   
    42    25    50 1   
    43    26    27 ar  
    44    26    28 ar  
    45    27    31 ar  
    46    27    51 1   
    47    28    29 ar  
    48    28    52 1   
    49    29    30 ar  
    50    29    53 1   
    51    30    31 ar  
    52    30    54 1   
    53    31    32 1   
    54    32    33 1   
    55    33    34 1   
    56    33    35 1   
    57    33    55 1   
@<TRIPOS>SUBSTRUCTURE
     1 H41         1 TEMP              0 ****  ****    0 ROOT
