@<TRIPOS>MOLECULE
H42
   23    24     1     0     0
SMALL
abcg2


@<TRIPOS>ATOM
      1 CAB         -1.9400     1.2790     0.0350 ca         1 H42      -0.144000
      2 CAC         -0.6290     1.7170    -0.0030 ca         1 H42      -0.075000
      3 CAD         -1.1370    -0.9810     0.1140 ca         1 H42      -0.207000
      4 CAE          2.9090     0.3400     0.3530 c6         1 H42      -0.073400
      5 CAF          2.6360    -0.9920    -0.3310 c6         1 H42      -0.072400
      6 CAG          1.8620     1.3680    -0.0570 c6         1 H42      -0.023100
      7 CAH          1.2970    -1.5520     0.1270 c6         1 H42      -0.033100
      8 CAI         -2.2000    -0.0890     0.0930 ca         1 H42       0.137100
      9 CAJ          0.4520     0.8350     0.0150 ca         1 H42      -0.108300
     10 CAK          0.1840    -0.5340     0.0760 ca         1 H42      -0.030300
     11 OAA         -3.4900    -0.4890     0.1250 oh         1 H42      -0.535100
     12 H1          -2.7590     1.9880     0.0190 ha         1 H42       0.127000
     13 H2          -0.4390     2.7840    -0.0480 ha         1 H42       0.111000
     14 H3          -1.3270    -2.0490     0.1590 ha         1 H42       0.109000
     15 H4           2.8900     0.2000     1.4390 hc         1 H42       0.042200
     16 H5           3.9050     0.7090     0.1020 hc         1 H42       0.042200
     17 H6           2.6300    -0.8480    -1.4170 hc         1 H42       0.042200
     18 H7           3.4290    -1.7110    -0.1160 hc         1 H42       0.042200
     19 H8           1.9480     2.2630     0.5650 hc         1 H42       0.045700
     20 H9           2.0680     1.6940    -1.0820 hc         1 H42       0.045700
     21 H10          1.0200    -2.4260    -0.4680 hc         1 H42       0.047700
     22 H11          1.3930    -1.9130     1.1570 hc         1 H42       0.047700
     23 H12         -3.5410    -1.4500     0.1550 ho         1 H42       0.462000
@<TRIPOS>BOND
     1     1     2 ar  
     2     1     8 ar  
     3     1    12 1   
     4     2     9 ar  
     5     2    13 1   
     6     3     8 ar  
     7     3    10 ar  
     8     3    14 1   
     9     4     5 1   
    10     4     6 1   
    11     4    15 1   
    12     4    16 1   
    13     5     7 1   
    14     5    17 1   
    15     5    18 1   
    16     6     9 1   
    17     6    19 1   
    18     6    20 1   
    19     7    10 1   
    20     7    21 1   
    21     7    22 1   
    22     8    11 1   
    23     9    10 ar  
    24    11    23 1   
@<TRIPOS>SUBSTRUCTURE
     1 H42         1 TEMP              0 ****  ****    0 ROOT
