@<TRIPOS>MOLECULE
H42
   23    24     1     0     0
SMALL
No Charge or Current Charge


@<TRIPOS>ATOM
      1 CAB         -1.9670     1.3030     0.0300 ca         1 H42      -0.144000
      2 CAC         -0.6400     1.7620    -0.0140 ca         1 H42      -0.075000
      3 CAD         -1.1720    -0.9910     0.1190 ca         1 H42      -0.207000
      4 CAE          2.9330     0.3450     0.3600 c6         1 H42      -0.073400
      5 CAF          2.6650    -1.0090    -0.3260 c6         1 H42      -0.072400
      6 CAG          1.8670     1.3840    -0.0540 c6         1 H42      -0.023100
      7 CAH          1.2950    -1.5770     0.1100 c6         1 H42      -0.033100
      8 CAI         -2.2310    -0.0720     0.0980 ca         1 H42       0.137100
      9 CAJ          0.4310     0.8470     0.0110 ca         1 H42      -0.108300
     10 CAK          0.1620    -0.5430     0.0700 ca         1 H42      -0.030300
     11 OAA         -3.5190    -0.5120     0.1430 oh         1 H42      -0.535100
     12 H1          -2.7890     2.0140     0.0120 ha         1 H42       0.127000
     13 H2          -0.4430     2.8310    -0.0690 ha         1 H42       0.111000
     14 H3          -1.3780    -2.0570     0.1740 ha         1 H42       0.109000
     15 H4           2.9210     0.2150     1.4510 hc         1 H42       0.042200
     16 H5           3.9350     0.7120     0.0980 hc         1 H42       0.042200
     17 H6           2.6830    -0.8800    -1.4180 hc         1 H42       0.042200
     18 H7           3.4620    -1.7250    -0.0810 hc         1 H42       0.042200
     19 H8           1.9650     2.2750     0.5800 hc         1 H42       0.045700
     20 H9           2.0710     1.7170    -1.0810 hc         1 H42       0.045700
     21 H10          1.0410    -2.4370    -0.5230 hc         1 H42       0.047700
     22 H11          1.3780    -1.9660     1.1340 hc         1 H42       0.047700
     23 H12         -3.5080    -1.4920     0.1880 ho         1 H42       0.462000
@<TRIPOS>BOND
     1     1     2 ar  
     2     1     8 ar  
     3     1    12 1   
     4     2     9 ar  
     5     2    13 1   
     6     3     8 ar  
     7     3    10 ar  
     8     3    14 1   
     9     4     5 1   
    10     4     6 1   
    11     4    15 1   
    12     4    16 1   
    13     5     7 1   
    14     5    17 1   
    15     5    18 1   
    16     6     9 1   
    17     6    19 1   
    18     6    20 1   
    19     7    10 1   
    20     7    21 1   
    21     7    22 1   
    22     8    11 1   
    23     9    10 ar  
    24    11    23 1   
@<TRIPOS>SUBSTRUCTURE
     1 H42         1 TEMP              0 ****  ****    0 ROOT
