@<TRIPOS>MOLECULE
H43
   53    56     1     0     0
SMALL
No Charge or Current Charge


@<TRIPOS>ATOM
      1 C10        146.9770   164.3880   131.2830 c5         1 H43       0.237800
      2 N12        146.3450   166.2970   129.6850 n7         1 H43      -0.864400
      3 C13        146.6740   165.6900   128.3780 c3         1 H43       0.222800
      4 C15        144.3230   165.0930   127.4680 ca         1 H43      -0.016000
      5 C17        143.0080   163.2820   128.4820 ca         1 H43      -0.074000
      6 C20        143.2670   165.3000   126.5420 ca         1 H43      -0.047000
      7 C21        143.3630   166.3100   125.5700 ca         1 H43      -0.093000
      8 C22        144.5000   167.1240   125.5150 ca         1 H43      -0.133000
      9 C24        148.0400   166.2270   127.8870 c3         1 H43      -0.124100
     10 C26        145.2150   165.7370   132.3320 c5         1 H43       0.241800
     11 C28        144.4480   160.8300   131.6630 ca         1 H43      -0.077000
     12 C2         141.6120   159.5960   130.4160 c          1 H43       0.725000
     13 C5         143.0720   160.9800   131.9130 ca         1 H43      -0.041300
     14 C6         142.5660   162.2570   132.2150 ca         1 H43      -0.077000
     15 C7         143.4240   163.3700   132.2590 ca         1 H43      -0.193500
     16 C8         144.8040   163.2310   131.9970 ca         1 H43       0.307000
     17 C11        147.1550   165.9050   130.8900 c5         1 H43       0.156500
     18 C14        145.4940   165.9070   127.4020 ca         1 H43      -0.057300
     19 C16        144.1680   164.0750   128.4410 ca         1 H43      -0.112000
     20 C18        141.9790   163.4920   127.5530 ca         1 H43      -0.074000
     21 C19        142.1080   164.5010   126.5870 ca         1 H43      -0.136000
     22 C23        145.5520   166.9280   126.4210 ca         1 H43      -0.127000
     23 C25        146.5050   166.5820   132.1250 c5         1 H43      -0.093400
     24 C27        145.3040   161.9440   131.7080 ca         1 H43      -0.193500
     25 N9         145.6680   164.3550   132.0070 nh         1 H43      -0.839400
     26 O1         142.2820   158.9350   129.6360 o          1 H43      -0.734000
     27 O3         140.6120   160.2170   130.0890 o          1 H43      -0.734000
     28 H102       146.9940   163.7310   130.4040 h1         1 H43       0.038200
     29 H101       147.7890   164.0660   131.9500 h1         1 H43       0.038200
     30 H1         146.3620   167.3150   129.5710 hn         1 H43       0.412000
     31 H131       146.8060   164.6050   128.4740 h1         1 H43       0.067700
     32 H171       142.9070   162.5050   129.2380 ha         1 H43       0.174000
     33 H211       142.5530   166.4700   124.8620 ha         1 H43       0.102000
     34 H221       144.5670   167.9100   124.7670 ha         1 H43       0.097000
     35 H243       148.8510   165.8660   128.5290 hc         1 H43       0.033033
     36 H241       148.2450   165.8760   126.8690 hc         1 H43       0.033033
     37 H242       148.0680   167.3230   127.8920 hc         1 H43       0.033033
     38 H261       144.4190   166.0620   131.6480 h1         1 H43       0.041200
     39 H262       144.8420   165.8230   133.3630 h1         1 H43       0.041200
     40 H281       144.8550   159.8490   131.4300 ha         1 H43       0.104000
     41 H042       142.7250   158.8960   132.1480 hc         1 H43       0.029700
     42 H041       141.3040   159.9760   132.5340 hc         1 H43       0.029700
     43 H061       141.5050   162.3910   132.4100 ha         1 H43       0.104000
     44 H071       142.9970   164.3410   132.4870 ha         1 H43       0.091000
     45 H111       148.2100   166.1860   130.7690 h1         1 H43       0.023700
     46 H161       144.9310   163.8880   129.1880 ha         1 H43       0.124000
     47 H181       141.0820   162.8770   127.5870 ha         1 H43       0.142000
     48 H191       141.3030   164.6620   125.8730 ha         1 H43       0.099000
     49 H231       146.4140   167.5850   126.3460 ha         1 H43       0.095000
     50 H252       147.1630   166.5070   132.9990 hc         1 H43       0.043700
     51 H251       146.2900   167.6450   131.9750 hc         1 H43       0.043700
     52 H271       146.3620   161.7940   131.5160 ha         1 H43       0.091000
     53 C4         142.1380   159.7730   131.8510 c3         1 H43      -0.180100
@<TRIPOS>BOND
     1     1    17 1   
     2     1    25 1   
     3     1    28 1   
     4     1    29 1   
     5     2     3 1   
     6     2    17 1   
     7     2    30 1   
     8     3     9 1   
     9     3    18 1   
    10     3    31 1   
    11     4     6 ar  
    12     4    18 ar  
    13     4    19 ar  
    14     5    19 ar  
    15     5    20 ar  
    16     5    32 1   
    17     6     7 ar  
    18     6    21 ar  
    19     7     8 ar  
    20     7    33 1   
    21     8    22 ar  
    22     8    34 1   
    23     9    35 1   
    24     9    36 1   
    25     9    37 1   
    26    10    23 1   
    27    10    25 1   
    28    10    38 1   
    29    10    39 1   
    30    11    13 ar  
    31    11    24 ar  
    32    11    40 1   
    33    12    26 1   
    34    12    27 1   
    35    12    53 1   
    36    13    14 ar  
    37    13    53 1   
    38    14    15 ar  
    39    14    43 1   
    40    15    16 ar  
    41    15    44 1   
    42    16    24 ar  
    43    16    25 1   
    44    17    23 1   
    45    17    45 1   
    46    18    22 ar  
    47    19    46 1   
    48    20    21 ar  
    49    20    47 1   
    50    21    48 1   
    51    22    49 1   
    52    23    50 1   
    53    23    51 1   
    54    24    52 1   
    55    41    53 1   
    56    42    53 1   
@<TRIPOS>SUBSTRUCTURE
     1 H43         1 TEMP              0 ****  ****    0 ROOT
