@<TRIPOS>MOLECULE
H43
   53    56     1     0     0
SMALL
abcg2


@<TRIPOS>ATOM
      1 C10        146.8950   164.4380   131.2290 c5         1 H43       0.237800
      2 N12        146.2340   166.2110   129.6670 n7         1 H43      -0.864400
      3 C13        146.7180   165.7040   128.3870 c3         1 H43       0.222800
      4 C15        144.4300   165.0750   127.4390 ca         1 H43      -0.016000
      5 C17        143.1200   163.2910   128.4460 ca         1 H43      -0.074000
      6 C20        143.3940   165.2620   126.4840 ca         1 H43      -0.047000
      7 C21        143.5310   166.2600   125.4900 ca         1 H43      -0.093000
      8 C22        144.6550   167.0310   125.4440 ca         1 H43      -0.133000
      9 C24        148.0610   166.2900   127.9540 c3         1 H43      -0.124100
     10 C26        145.1670   165.6800   132.3420 c5         1 H43       0.241800
     11 C28        144.4240   160.9220   131.4650 ca         1 H43      -0.077000
     12 C2         141.1630   159.7890   130.7020 c          1 H43       0.725000
     13 C5         143.1080   160.9900   131.9130 ca         1 H43      -0.041300
     14 C6         142.6850   162.2220   132.4070 ca         1 H43      -0.077000
     15 C7         143.5090   163.3340   132.4310 ca         1 H43      -0.193500
     16 C8         144.8290   163.2660   131.9500 ca         1 H43       0.307000
     17 C11        147.0230   165.9120   130.8510 c5         1 H43       0.156500
     18 C14        145.6060   165.8870   127.3680 ca         1 H43      -0.057300
     19 C16        144.2460   164.0690   128.4210 ca         1 H43      -0.112000
     20 C18        142.1010   163.4800   127.4910 ca         1 H43      -0.074000
     21 C19        142.2380   164.4460   126.5340 ca         1 H43      -0.136000
     22 C23        145.6900   166.8360   126.3820 ca         1 H43      -0.127000
     23 C25        146.3620   166.5810   132.0540 c5         1 H43      -0.093400
     24 C27        145.2730   162.0180   131.4840 ca         1 H43      -0.193500
     25 N9         145.6370   164.3680   131.9460 nh         1 H43      -0.839400
     26 O1         141.2650   160.6510   129.8090 o          1 H43      -0.734000
     27 O3         140.3140   158.8770   130.7650 o          1 H43      -0.734000
     28 H102       146.9000   163.7840   130.3540 h1         1 H43       0.038200
     29 H101       147.7440   164.1310   131.8520 h1         1 H43       0.038200
     30 H1         146.1080   167.2140   129.5910 hn         1 H43       0.412000
     31 H131       146.8740   164.6270   128.4990 h1         1 H43       0.067700
     32 H171       143.0010   162.5260   129.2030 ha         1 H43       0.174000
     33 H211       142.7350   166.4000   124.7680 ha         1 H43       0.102000
     34 H221       144.7650   167.7960   124.6860 ha         1 H43       0.097000
     35 H243       148.8360   166.0220   128.6720 hc         1 H43       0.033033
     36 H241       148.3700   165.9050   126.9820 hc         1 H43       0.033033
     37 H242       148.0320   167.3800   127.8970 hc         1 H43       0.033033
     38 H261       144.2910   165.9880   131.7570 h1         1 H43       0.041200
     39 H262       144.8790   165.7070   133.3970 h1         1 H43       0.041200
     40 H281       144.8080   159.9790   131.0900 ha         1 H43       0.104000
     41 H042       142.7760   158.8880   131.8000 hc         1 H43       0.029700
     42 H041       141.6310   159.7300   132.8040 hc         1 H43       0.029700
     43 H061       141.6720   162.3220   132.7830 ha         1 H43       0.104000
     44 H071       143.1170   164.2640   132.8220 ha         1 H43       0.091000
     45 H111       148.0790   166.1970   130.7620 h1         1 H43       0.023700
     46 H161       144.9980   163.9090   129.1770 ha         1 H43       0.124000
     47 H181       141.2150   162.8590   127.5220 ha         1 H43       0.142000
     48 H191       141.4610   164.6030   125.7950 ha         1 H43       0.099000
     49 H231       146.5700   167.4610   126.3040 ha         1 H43       0.095000
     50 H252       147.0540   166.5790   132.8990 hc         1 H43       0.043700
     51 H251       146.0730   167.6160   131.8680 hc         1 H43       0.043700
     52 H271       146.2920   161.8910   131.1400 ha         1 H43       0.091000
     53 C4         142.1890   159.8100   131.8670 c3         1 H43      -0.180100
@<TRIPOS>BOND
     1     1    17 1   
     2     1    25 1   
     3     1    28 1   
     4     1    29 1   
     5     2     3 1   
     6     2    17 1   
     7     2    30 1   
     8     3     9 1   
     9     3    18 1   
    10     3    31 1   
    11     4     6 ar  
    12     4    18 ar  
    13     4    19 ar  
    14     5    19 ar  
    15     5    20 ar  
    16     5    32 1   
    17     6     7 ar  
    18     6    21 ar  
    19     7     8 ar  
    20     7    33 1   
    21     8    22 ar  
    22     8    34 1   
    23     9    35 1   
    24     9    36 1   
    25     9    37 1   
    26    10    23 1   
    27    10    25 1   
    28    10    38 1   
    29    10    39 1   
    30    11    13 ar  
    31    11    24 ar  
    32    11    40 1   
    33    12    26 1   
    34    12    27 1   
    35    12    53 1   
    36    13    14 ar  
    37    13    53 1   
    38    14    15 ar  
    39    14    43 1   
    40    15    16 ar  
    41    15    44 1   
    42    16    24 ar  
    43    16    25 1   
    44    17    23 1   
    45    17    45 1   
    46    18    22 ar  
    47    19    46 1   
    48    20    21 ar  
    49    20    47 1   
    50    21    48 1   
    51    22    49 1   
    52    23    50 1   
    53    23    51 1   
    54    24    52 1   
    55    41    53 1   
    56    42    53 1   
@<TRIPOS>SUBSTRUCTURE
     1 H43         1 TEMP              0 ****  ****    0 ROOT
