@<TRIPOS>MOLECULE
H44
   57    60     1     0     0
SMALL
No Charge or Current Charge


@<TRIPOS>ATOM
      1 N26          6.9300     2.0900    -1.1950 n2         1 H44      -0.823100
      2 C26          7.2900     1.0480    -0.5620 ce         1 H44       0.716800
      3 C25          8.6270     0.9800     0.0120 cc         1 H44      -0.343900
      4 S21          9.1320    -0.3950     1.0020 ss         1 H44       0.230000
      5 C22         10.7200     0.3090     1.2660 cc         1 H44      -0.233000
      6 C23         10.8270     1.5200     0.6350 cd         1 H44      -0.134000
      7 C24          9.6530     1.9010    -0.0670 cd         1 H44      -0.099000
      8 N27          6.4900    -0.0680    -0.4720 nu         1 H44      -0.919200
      9 C31          5.1230    -0.2800    -0.6680 ca         1 H44       0.315000
     10 C36          4.6770    -1.5990    -0.8610 ca         1 H44      -0.156000
     11 C35          3.3100    -1.8750    -1.0450 ca         1 H44      -0.077000
     12 C34          2.3690    -0.8300    -1.0300 ca         1 H44      -0.115300
     13 C33          2.8080     0.4900    -0.8200 ca         1 H44      -0.077000
     14 C32          4.1760     0.7610    -0.6370 ca         1 H44      -0.156000
     15 C37          0.8860    -1.1260    -1.2220 c3         1 H44      -0.027100
     16 C38          0.1730    -1.4020     0.1170 c3         1 H44       0.158800
     17 N18         -1.2590    -1.6830    -0.1030 n7         1 H44      -0.862400
     18 C17         -2.0410    -1.9400     1.1190 c3         1 H44       0.203100
     19 C15         -3.4920    -2.2460     0.7710 ca         1 H44      -0.059300
     20 C14         -3.9540    -3.5760     0.7420 ca         1 H44      -0.133000
     21 C13         -5.2970    -3.8520     0.4380 ca         1 H44      -0.083000
     22 C12         -6.1820    -2.7980     0.1530 ca         1 H44      -0.159000
     23 C11         -5.7320    -1.4680     0.1590 ca         1 H44       0.286000
     24 C16         -4.3880    -1.1970     0.4820 ca         1 H44      -0.126000
     25 N07         -6.6530    -0.4560    -0.1240 nu         1 H44      -0.967200
     26 C06         -6.5140     0.8540    -0.5110 ce         1 H44       0.701800
     27 N06         -5.4840     1.2190    -1.1580 n2         1 H44      -0.802100
     28 C05         -7.5980     1.7870    -0.2390 cc         1 H44      -0.284900
     29 S01         -9.0080     1.3180     0.7150 ss         1 H44       0.215000
     30 C02         -9.7110     2.9230     0.5560 cc         1 H44      -0.238000
     31 C03         -8.8930     3.7430    -0.1760 cd         1 H44      -0.140000
     32 C04         -7.7050     3.1060    -0.6210 cd         1 H44      -0.075000
     33 H1           7.7000     2.7620    -1.1250 hn         1 H44       0.394400
     34 H2          11.4490    -0.2200     1.8650 h4         1 H44       0.155000
     35 H3          11.7250     2.1310     0.6680 ha         1 H44       0.140000
     36 H4           9.5880     2.8370    -0.6150 ha         1 H44       0.141000
     37 H5           7.0200    -0.9040    -0.2640 hn         1 H44       0.493000
     38 H6           5.3900    -2.4180    -0.8760 ha         1 H44       0.130000
     39 H7           2.9850    -2.9020    -1.1980 ha         1 H44       0.111500
     40 H8           2.0900     1.3070    -0.7910 ha         1 H44       0.111500
     41 H9           4.4860     1.7840    -0.4560 ha         1 H44       0.130000
     42 H10          0.3960    -0.2820    -1.7220 hc         1 H44       0.052700
     43 H11          0.7590    -1.9920    -1.8840 hc         1 H44       0.052700
     44 H12          0.6590    -2.2560     0.6100 h1         1 H44       0.033200
     45 H13          0.2940    -0.5270     0.7700 h1         1 H44       0.033200
     46 H14         -1.3370    -2.5130    -0.7020 hn         1 H44       0.409000
     47 H16         -1.6170    -2.7880     1.6750 h1         1 H44       0.038700
     48 H17         -2.0100    -1.0670     1.7850 h1         1 H44       0.038700
     49 H18         -3.2730    -4.3960     0.9620 ha         1 H44       0.113000
     50 H19         -5.6510    -4.8800     0.4230 ha         1 H44       0.113000
     51 H20         -7.2190    -3.0210    -0.0830 ha         1 H44       0.113000
     52 H21         -4.0290    -0.1740     0.5310 ha         1 H44       0.139000
     53 H22         -7.6240    -0.7270    -0.0140 hn         1 H44       0.488000
     54 H23         -4.9410     0.3630    -1.3100 hn         1 H44       0.395400
     55 H24        -10.6680     3.1380     1.0150 h4         1 H44       0.151000
     56 H25         -9.1310     4.7810    -0.3950 ha         1 H44       0.137000
     57 H26         -6.9480     3.6170    -1.2110 ha         1 H44       0.152000
@<TRIPOS>BOND
     1     1     2 2   
     2     1    33 1   
     3     2     3 1   
     4     2     8 1   
     5     3     4 1   
     6     3     7 2   
     7     4     5 1   
     8     5     6 2   
     9     5    34 1   
    10     6     7 1   
    11     6    35 1   
    12     7    36 1   
    13     8     9 1   
    14     8    37 1   
    15     9    10 ar  
    16     9    14 ar  
    17    10    11 ar  
    18    10    38 1   
    19    11    12 ar  
    20    11    39 1   
    21    12    13 ar  
    22    12    15 1   
    23    13    14 ar  
    24    13    40 1   
    25    14    41 1   
    26    15    16 1   
    27    15    42 1   
    28    15    43 1   
    29    16    17 1   
    30    16    44 1   
    31    16    45 1   
    32    17    18 1   
    33    17    46 1   
    34    18    19 1   
    35    18    47 1   
    36    18    48 1   
    37    19    20 ar  
    38    19    24 ar  
    39    20    21 ar  
    40    20    49 1   
    41    21    22 ar  
    42    21    50 1   
    43    22    23 ar  
    44    22    51 1   
    45    23    24 ar  
    46    23    25 1   
    47    24    52 1   
    48    25    26 1   
    49    25    53 1   
    50    26    27 2   
    51    26    28 1   
    52    27    54 1   
    53    28    29 1   
    54    28    32 2   
    55    29    30 1   
    56    30    31 2   
    57    30    55 1   
    58    31    32 1   
    59    31    56 1   
    60    32    57 1   
@<TRIPOS>SUBSTRUCTURE
     1 H44         1 TEMP              0 ****  ****    0 ROOT
