@<TRIPOS>MOLECULE
H44
   57    60     1     0     0
SMALL
bcc


@<TRIPOS>ATOM
      1 N26          6.3990     2.3930     0.2420 n2         1 H44      -0.823100
      2 C26          6.9400     1.2620     0.0060 ce         1 H44       0.716800
      3 C25          8.3870     1.0040     0.1570 cc         1 H44      -0.199000
      4 S21          9.0020    -0.4950     0.7490 ss         1 H44      -0.059800
      5 C22         10.6170     0.0560     0.6360 cc         1 H44      -0.106100
      6 C23         10.6820     1.3350     0.1700 cd         1 H44      -0.152000
      7 C24          9.4020     1.8800    -0.1020 cd         1 H44      -0.117000
      8 N27          6.2310     0.1720    -0.4180 nu         1 H44      -0.725600
      9 C31          4.8570     0.0090    -0.5870 ca         1 H44       0.176600
     10 C36          4.4290    -1.2190    -1.1050 ca         1 H44      -0.174000
     11 C35          3.0850    -1.4770    -1.2970 ca         1 H44      -0.095000
     12 C34          2.1130    -0.5290    -0.9830 ca         1 H44      -0.115300
     13 C33          2.5490     0.6860    -0.4680 ca         1 H44      -0.095000
     14 C32          3.8950     0.9680    -0.2700 ca         1 H44      -0.174000
     15 C37          0.6510    -0.8300    -1.1550 c3         1 H44      -0.027100
     16 C38          0.0590    -1.4850     0.0900 c3         1 H44       0.158800
     17 N18         -1.3560    -1.7440    -0.0860 n7         1 H44      -0.807200
     18 C17         -1.9570    -2.4000     1.0600 c3         1 H44       0.203100
     19 C15         -3.4410    -2.5650     0.8710 ca         1 H44      -0.059300
     20 C14         -4.0430    -3.8150     0.9450 ca         1 H44      -0.151000
     21 C13         -5.4180    -3.9350     0.7860 ca         1 H44      -0.101000
     22 C12         -6.1970    -2.8200     0.5320 ca         1 H44      -0.177000
     23 C11         -5.6010    -1.5590     0.4530 ca         1 H44       0.147600
     24 C16         -4.2260    -1.4420     0.6290 ca         1 H44      -0.144000
     25 N07         -6.4130    -0.4380     0.2540 nu         1 H44      -0.773600
     26 C06         -6.1210     0.6370    -0.5610 ce         1 H44       0.701800
     27 N06         -5.1500     0.7620    -1.3760 n2         1 H44      -0.802100
     28 C05         -7.0720     1.7520    -0.4270 cc         1 H44      -0.140000
     29 S01         -7.9750     2.0140     1.0190 ss         1 H44      -0.074800
     30 C02         -8.7310     3.3980     0.3630 cc         1 H44      -0.111100
     31 C03         -8.3050     3.6550    -0.9060 cd         1 H44      -0.158000
     32 C04         -7.3490     2.7120    -1.3580 cd         1 H44      -0.093000
     33 H1           7.0870     3.0400     0.6080 hn         1 H44       0.394400
     34 H2          11.4320    -0.5900     0.9250 h4         1 H44       0.173000
     35 H3          11.6100     1.8680     0.0200 ha         1 H44       0.158000
     36 H4           9.2420     2.8740    -0.4960 ha         1 H44       0.159000
     37 H5           6.7790    -0.6040    -0.7580 hn         1 H44       0.437800
     38 H6           5.1600    -1.9780    -1.3600 ha         1 H44       0.148000
     39 H7           2.7870    -2.4360    -1.7050 ha         1 H44       0.129500
     40 H8           1.8210     1.4510    -0.2190 ha         1 H44       0.129500
     41 H9           4.1960     1.9280     0.1160 ha         1 H44       0.148000
     42 H10          0.0990     0.0880    -1.3700 hc         1 H44       0.052700
     43 H11          0.5110    -1.4960    -2.0120 hc         1 H44       0.052700
     44 H12          0.6350    -2.3930     0.3300 h1         1 H44       0.033200
     45 H13          0.1810    -0.8090     0.9430 h1         1 H44       0.033200
     46 H14         -1.4860    -2.3330    -0.9010 hn         1 H44       0.353800
     47 H16         -1.5060    -3.3770     1.2870 h1         1 H44       0.038700
     48 H17         -1.7760    -1.7710     1.9380 h1         1 H44       0.038700
     49 H18         -3.4400    -4.6960     1.1310 ha         1 H44       0.131000
     50 H19         -5.8870    -4.9090     0.8470 ha         1 H44       0.131000
     51 H20         -7.2670    -2.9190     0.3980 ha         1 H44       0.131000
     52 H21         -3.7500    -0.4690     0.6040 ha         1 H44       0.157000
     53 H22         -7.3910    -0.5790     0.4640 hn         1 H44       0.432800
     54 H23         -4.6020    -0.0890    -1.4530 hn         1 H44       0.395400
     55 H24         -9.4480     3.9530     0.9490 h4         1 H44       0.169000
     56 H25         -8.6640     4.4840    -1.4980 ha         1 H44       0.155000
     57 H26         -6.8900     2.7290    -2.3360 ha         1 H44       0.170000
@<TRIPOS>BOND
     1     1     2 2   
     2     1    33 1   
     3     2     3 1   
     4     2     8 1   
     5     3     4 1   
     6     3     7 2   
     7     4     5 1   
     8     5     6 2   
     9     5    34 1   
    10     6     7 1   
    11     6    35 1   
    12     7    36 1   
    13     8     9 1   
    14     8    37 1   
    15     9    10 ar  
    16     9    14 ar  
    17    10    11 ar  
    18    10    38 1   
    19    11    12 ar  
    20    11    39 1   
    21    12    13 ar  
    22    12    15 1   
    23    13    14 ar  
    24    13    40 1   
    25    14    41 1   
    26    15    16 1   
    27    15    42 1   
    28    15    43 1   
    29    16    17 1   
    30    16    44 1   
    31    16    45 1   
    32    17    18 1   
    33    17    46 1   
    34    18    19 1   
    35    18    47 1   
    36    18    48 1   
    37    19    20 ar  
    38    19    24 ar  
    39    20    21 ar  
    40    20    49 1   
    41    21    22 ar  
    42    21    50 1   
    43    22    23 ar  
    44    22    51 1   
    45    23    24 ar  
    46    23    25 1   
    47    24    52 1   
    48    25    26 1   
    49    25    53 1   
    50    26    27 2   
    51    26    28 1   
    52    27    54 1   
    53    28    29 1   
    54    28    32 2   
    55    29    30 1   
    56    30    31 2   
    57    30    55 1   
    58    31    32 1   
    59    31    56 1   
    60    32    57 1   
@<TRIPOS>SUBSTRUCTURE
     1 H44         1 TEMP              0 ****  ****    0 ROOT
