@<TRIPOS>MOLECULE
H45
   57    60     1     0     0
SMALL
No Charge or Current Charge


@<TRIPOS>ATOM
      1 N26         -7.8170    -0.2680    -1.4180 n2         1 H45      -0.805100
      2 C26         -7.0410     0.4500    -0.7150 ce         1 H45       0.702800
      3 C25         -7.4900     1.7190    -0.1600 cc         1 H45      -0.287900
      4 S21         -6.4480     2.7000     0.8750 ss         1 H45       0.216000
      5 C22         -7.7040     3.9160     1.0700 cc         1 H45      -0.236000
      6 C23         -8.8360     3.5630     0.3850 cd         1 H45      -0.141000
      7 C24         -8.7180     2.3260    -0.3040 cd         1 H45      -0.074000
      8 N27         -5.7330     0.0740    -0.5340 nu         1 H45      -0.964200
      9 C31         -5.0890    -1.1650    -0.5450 ca         1 H45       0.287000
     10 C36         -3.6950    -1.1930    -0.7130 ca         1 H45      -0.157000
     11 C35         -2.9930    -2.4140    -0.7230 ca         1 H45      -0.049300
     12 C34         -3.6990    -3.6170    -0.5480 ca         1 H45      -0.130000
     13 C33         -5.0910    -3.5990    -0.3620 ca         1 H45      -0.082000
     14 C32         -5.7830    -2.3760    -0.3570 ca         1 H45      -0.147000
     15 C37         -1.4810    -2.4300    -0.9110 c3         1 H45      -0.037100
     16 C38         -0.7320    -2.2990     0.4300 c3         1 H45       0.157800
     17 N18          0.7270    -2.3140     0.2140 n7         1 H45      -0.858400
     18 C17          1.5410    -2.1710     1.4340 c3         1 H45       0.204100
     19 C15          3.0270    -2.2440     1.1010 ca         1 H45      -0.058300
     20 C14          3.7230    -3.4610     1.2160 ca         1 H45      -0.141000
     21 C13          5.0930    -3.5220     0.9160 ca         1 H45      -0.086000
     22 C12          5.7730    -2.3660     0.4930 ca         1 H45      -0.132000
     23 C11          5.0860    -1.1430     0.3570 ca         1 H45       0.314000
     24 C16          3.7170    -1.0920     0.6750 ca         1 H45      -0.153000
     25 N07          5.7120     0.0420    -0.0420 nu         1 H45      -0.920200
     26 C06          6.8980     0.3100    -0.6860 ce         1 H45       0.717800
     27 N06          7.5350    -0.5820    -1.3310 n2         1 H45      -0.823100
     28 C05          7.3760     1.6850    -0.6970 cc         1 H45      -0.343900
     29 S01          6.5910     2.9370     0.2760 ss         1 H45       0.232000
     30 C02          7.7300     4.1550    -0.2770 cc         1 H45      -0.233000
     31 C03          8.6440     3.6130    -1.1410 cd         1 H45      -0.134000
     32 C04          8.4490     2.2260    -1.3760 cd         1 H45      -0.099000
     33 H1          -7.2340    -1.0320    -1.7720 hn         1 H45       0.391400
     34 H2          -7.5120     4.7930     1.6750 h4         1 H45       0.151000
     35 H3          -9.7380     4.1680     0.3710 ha         1 H45       0.138000
     36 H4          -9.5260     1.9010    -0.8930 ha         1 H45       0.152000
     37 H5          -5.1250     0.8630    -0.3470 hn         1 H45       0.488000
     38 H6          -3.1510    -0.2610    -0.8450 ha         1 H45       0.114000
     39 H7          -3.1700    -4.5680    -0.5480 ha         1 H45       0.115000
     40 H8          -5.6320    -4.5310    -0.2140 ha         1 H45       0.116000
     41 H9          -6.8540    -2.3800    -0.1810 ha         1 H45       0.127000
     42 H10         -1.1740    -3.3580    -1.4080 hc         1 H45       0.056200
     43 H11         -1.1760    -1.6100    -1.5730 hc         1 H45       0.056200
     44 H12         -1.0360    -1.3610     0.9150 h1         1 H45       0.032200
     45 H13         -1.0310    -3.1270     1.0880 h1         1 H45       0.032200
     46 H14          0.9800    -3.2070    -0.2240 hn         1 H45       0.410000
     47 H16          1.3300    -1.2110     1.9250 h1         1 H45       0.035700
     48 H17          1.2960    -2.9650     2.1530 h1         1 H45       0.035700
     49 H18          3.2040    -4.3600     1.5430 ha         1 H45       0.109000
     50 H19          5.6310    -4.4620     1.0160 ha         1 H45       0.112000
     51 H20          6.8350    -2.4290     0.2860 ha         1 H45       0.152000
     52 H21          3.1780    -0.1530     0.5840 ha         1 H45       0.111000
     53 H22          5.1710     0.8790     0.1270 hn         1 H45       0.494000
     54 H23          8.3640    -0.1270    -1.7270 hn         1 H45       0.395400
     55 H24          7.6400     5.1740     0.0780 h4         1 H45       0.154000
     56 H25          9.4420     4.1890    -1.6020 ha         1 H45       0.140000
     57 H26          9.0970     1.6580    -2.0380 ha         1 H45       0.141000
@<TRIPOS>BOND
     1     1     2 2   
     2     1    33 1   
     3     2     3 1   
     4     2     8 1   
     5     3     4 1   
     6     3     7 2   
     7     4     5 1   
     8     5     6 2   
     9     5    34 1   
    10     6     7 1   
    11     6    35 1   
    12     7    36 1   
    13     8     9 1   
    14     8    37 1   
    15     9    10 ar  
    16     9    14 ar  
    17    10    11 ar  
    18    10    38 1   
    19    11    12 ar  
    20    11    15 1   
    21    12    13 ar  
    22    12    39 1   
    23    13    14 ar  
    24    13    40 1   
    25    14    41 1   
    26    15    16 1   
    27    15    42 1   
    28    15    43 1   
    29    16    17 1   
    30    16    44 1   
    31    16    45 1   
    32    17    18 1   
    33    17    46 1   
    34    18    19 1   
    35    18    47 1   
    36    18    48 1   
    37    19    20 ar  
    38    19    24 ar  
    39    20    21 ar  
    40    20    49 1   
    41    21    22 ar  
    42    21    50 1   
    43    22    23 ar  
    44    22    51 1   
    45    23    24 ar  
    46    23    25 1   
    47    24    52 1   
    48    25    26 1   
    49    25    53 1   
    50    26    27 2   
    51    26    28 1   
    52    27    54 1   
    53    28    29 1   
    54    28    32 2   
    55    29    30 1   
    56    30    31 2   
    57    30    55 1   
    58    31    32 1   
    59    31    56 1   
    60    32    57 1   
@<TRIPOS>SUBSTRUCTURE
     1 H45         1 TEMP              0 ****  ****    0 ROOT
