@<TRIPOS>MOLECULE
H45
   57    60     1     0     0
SMALL
abcg2


@<TRIPOS>ATOM
      1 N26         -7.4610    -0.1190    -1.4320 n2         1 H45      -0.805100
      2 C26         -6.7080     0.4850    -0.6020 ce         1 H45       0.702800
      3 C25         -7.1330     1.8000    -0.0990 cc         1 H45      -0.287900
      4 S21         -6.6290     2.3970     1.4390 ss         1 H45       0.216000
      5 C22         -7.5310     3.8350     1.2390 cc         1 H45      -0.236000
      6 C23         -8.1970     3.8530     0.0500 cd         1 H45      -0.141000
      7 C24         -7.9720     2.6830    -0.7170 cd         1 H45      -0.074000
      8 N27         -5.5050     0.0540    -0.0760 nu         1 H45      -0.964200
      9 C31         -4.9360    -1.2070    -0.2840 ca         1 H45       0.287000
     10 C36         -3.5730    -1.2970    -0.5540 ca         1 H45      -0.157000
     11 C35         -2.9470    -2.5290    -0.7140 ca         1 H45      -0.049300
     12 C34         -3.7140    -3.6870    -0.6230 ca         1 H45      -0.130000
     13 C33         -5.0740    -3.6040    -0.3560 ca         1 H45      -0.082000
     14 C32         -5.6900    -2.3760    -0.1750 ca         1 H45      -0.147000
     15 C37         -1.4640    -2.5940    -0.9440 c3         1 H45      -0.037100
     16 C38         -0.6930    -2.4260     0.3640 c3         1 H45       0.157800
     17 N18          0.7370    -2.4500     0.1310 n7         1 H45      -0.858400
     18 C17          1.5000    -2.3080     1.3610 c3         1 H45       0.204100
     19 C15          2.9750    -2.3360     1.0730 ca         1 H45      -0.058300
     20 C14          3.7040    -3.5160     1.1970 ca         1 H45      -0.141000
     21 C13          5.0540    -3.5230     0.8810 ca         1 H45      -0.086000
     22 C12          5.7030    -2.3760     0.4450 ca         1 H45      -0.132000
     23 C11          4.9820    -1.1850     0.3270 ca         1 H45       0.314000
     24 C16          3.6180    -1.1890     0.6340 ca         1 H45      -0.153000
     25 N07          5.5300     0.0370    -0.0550 nu         1 H45      -0.920200
     26 C06          6.7940     0.3360    -0.4860 ce         1 H45       0.717800
     27 N06          7.6650    -0.5580    -0.7490 n2         1 H45      -0.823100
     28 C05          7.0450     1.7850    -0.6200 cc         1 H45      -0.343900
     29 S01          6.3930     2.9380     0.4850 ss         1 H45       0.232000
     30 C02          7.1620     4.2340    -0.3230 cc         1 H45      -0.233000
     31 C03          7.8900     3.8030    -1.3910 cd         1 H45      -0.134000
     32 C04          7.8250     2.3970    -1.5600 cd         1 H45      -0.099000
     33 H1          -7.0450    -0.9810    -1.7720 hn         1 H45       0.391400
     34 H2          -7.5290     4.5880     2.0120 h4         1 H45       0.151000
     35 H3          -8.8240     4.6730    -0.2690 ha         1 H45       0.138000
     36 H4          -8.3990     2.4990    -1.6910 ha         1 H45       0.152000
     37 H5          -4.8460     0.7820     0.1570 hn         1 H45       0.488000
     38 H6          -2.9880    -0.3860    -0.6400 ha         1 H45       0.114000
     39 H7          -3.2470    -4.6550    -0.7580 ha         1 H45       0.115000
     40 H8          -5.6630    -4.5080    -0.2730 ha         1 H45       0.116000
     41 H9          -6.7430    -2.3340     0.0700 ha         1 H45       0.127000
     42 H10         -1.2020    -3.5530    -1.3980 hc         1 H45       0.056200
     43 H11         -1.1530    -1.8130    -1.6420 hc         1 H45       0.056200
     44 H12         -0.9500    -1.4600     0.8100 h1         1 H45       0.032200
     45 H13         -1.0240    -3.1940     1.0810 h1         1 H45       0.032200
     46 H14          0.9860    -3.3330    -0.3000 hn         1 H45       0.410000
     47 H16          1.2320    -1.3500     1.8150 h1         1 H45       0.035700
     48 H17          1.2580    -3.0840     2.1020 h1         1 H45       0.035700
     49 H18          3.2190    -4.4210     1.5410 ha         1 H45       0.109000
     50 H19          5.6240    -4.4390     0.9740 ha         1 H45       0.112000
     51 H20          6.7520    -2.4040     0.1990 ha         1 H45       0.152000
     52 H21          3.0490    -0.2700     0.5420 ha         1 H45       0.111000
     53 H22          4.8620     0.7910    -0.0930 hn         1 H45       0.494000
     54 H23          8.5520    -0.1280    -0.9850 hn         1 H45       0.395400
     55 H24          7.0420     5.2440     0.0380 h4         1 H45       0.154000
     56 H25          8.4510     4.4630    -2.0350 ha         1 H45       0.140000
     57 H26          8.3190     1.8620    -2.3600 ha         1 H45       0.141000
@<TRIPOS>BOND
     1     1     2 2   
     2     1    33 1   
     3     2     3 1   
     4     2     8 1   
     5     3     4 1   
     6     3     7 2   
     7     4     5 1   
     8     5     6 2   
     9     5    34 1   
    10     6     7 1   
    11     6    35 1   
    12     7    36 1   
    13     8     9 1   
    14     8    37 1   
    15     9    10 ar  
    16     9    14 ar  
    17    10    11 ar  
    18    10    38 1   
    19    11    12 ar  
    20    11    15 1   
    21    12    13 ar  
    22    12    39 1   
    23    13    14 ar  
    24    13    40 1   
    25    14    41 1   
    26    15    16 1   
    27    15    42 1   
    28    15    43 1   
    29    16    17 1   
    30    16    44 1   
    31    16    45 1   
    32    17    18 1   
    33    17    46 1   
    34    18    19 1   
    35    18    47 1   
    36    18    48 1   
    37    19    20 ar  
    38    19    24 ar  
    39    20    21 ar  
    40    20    49 1   
    41    21    22 ar  
    42    21    50 1   
    43    22    23 ar  
    44    22    51 1   
    45    23    24 ar  
    46    23    25 1   
    47    24    52 1   
    48    25    26 1   
    49    25    53 1   
    50    26    27 2   
    51    26    28 1   
    52    27    54 1   
    53    28    29 1   
    54    28    32 2   
    55    29    30 1   
    56    30    31 2   
    57    30    55 1   
    58    31    32 1   
    59    31    56 1   
    60    32    57 1   
@<TRIPOS>SUBSTRUCTURE
     1 H45         1 TEMP              0 ****  ****    0 ROOT
