@<TRIPOS>MOLECULE
H46
   78    82     1     0     0
SMALL
No Charge or Current Charge


@<TRIPOS>ATOM
      1 C13        -24.3030    11.4450    46.6060 c          1 H46       0.617700
      2 C17        -23.9970     9.0290    48.6020 ca         1 H46      -0.161000
      3 C20        -21.4810     8.8740    49.8370 ca         1 H46      -0.107000
      4 C21        -21.7780     9.9330    48.9590 ca         1 H46      -0.167000
      5 C24        -22.8290     5.1870    52.8280 c6         1 H46       0.157300
      6 C26        -20.7060     4.8080    51.6730 c6         1 H46       0.157300
      7 C28        -21.3750     3.2880    53.5550 c3         1 H46       0.155800
      8 C01        -22.8310    13.1780    45.4400 ca         1 H46      -0.089000
      9 C02        -24.1120    12.7510    45.8590 ca         1 H46      -0.146600
     10 C03        -25.2700    13.5400    45.5720 cp         1 H46       0.017000
     11 C04        -25.0870    14.7290    44.8250 ca         1 H46      -0.106000
     12 C05        -23.8140    15.1390    44.3960 ca         1 H46      -0.089000
     13 C06        -22.6860    14.3670    44.7100 ca         1 H46      -0.112000
     14 C07        -26.9350    13.0900    47.4360 ca         1 H46      -0.056000
     15 C08        -28.2520    12.8070    47.8310 ca         1 H46      -0.160000
     16 C09        -29.2470    12.6680    46.8490 ca         1 H46       0.342900
     17 C11        -27.7240    13.0700    45.1490 ca         1 H46       0.358900
     18 C12        -26.6460    13.2180    46.0570 cp         1 H46      -0.095000
     19 C16        -23.0310    10.0210    48.3300 ca         1 H46      -0.016000
     20 C18        -23.7040     7.9710    49.4800 ca         1 H46       0.181000
     21 C19        -22.4370     7.8750    50.1140 ca         1 H46       0.205000
     22 C23        -22.8910     6.6480    52.2810 c6         1 H46       0.186800
     23 C27        -20.7340     6.2630    51.1030 c6         1 H46       0.186800
     24 C29        -22.1380     3.0630    54.9220 c          1 H46       0.602100
     25 C32        -23.8460     1.8150    56.2950 c3         1 H46       0.104000
     26 C33        -25.2320     2.4740    56.1790 c3         1 H46      -0.116100
     27 C34        -22.9910     0.7920    54.1490 c3         1 H46       0.104000
     28 C35        -24.0460     0.8530    53.0300 c3         1 H46      -0.116100
     29 C36        -19.9330     2.7800    53.6940 ca         1 H46      -0.095300
     30 C37        -19.0330     3.4170    54.5730 ca         1 H46      -0.090500
     31 C38        -17.7120     2.9540    54.6980 ca         1 H46      -0.117500
     32 C39        -17.2780     1.8530    53.9420 ca         1 H46      -0.104000
     33 C40        -18.1650     1.2180    53.0580 ca         1 H46      -0.117500
     34 C41        -19.4870     1.6800    52.9320 ca         1 H46      -0.090500
     35 F42        -24.6590     7.0330    49.6930 f          1 H46      -0.172000
     36 N10        -28.9980    12.7990    45.5250 nb         1 H46      -0.665000
     37 N14        -23.2560    11.1230    47.4600 ns         1 H46      -0.144000
     38 N22        -22.1230     6.8110    51.0080 nh         1 H46      -0.763400
     39 N25        -21.4280     4.6770    52.9810 n3         1 H46      -0.693600
     40 O15        -25.2700    10.7150    46.4210 o          1 H46      -0.557100
     41 O31        -22.0100     3.8600    55.8500 o          1 H46      -0.587100
     42 H1         -24.9830     9.0560    48.1510 ha         1 H46       0.165000
     43 H2         -20.5050     8.8430    50.3110 ha         1 H46       0.119000
     44 H3         -21.0200    10.6910    48.7690 ha         1 H46       0.112000
     45 H4         -23.3580     5.1640    53.7920 h1         1 H46       0.045200
     46 H5         -23.3920     4.5370    52.1420 h1         1 H46       0.045200
     47 H6         -21.1570     4.1360    50.9270 h1         1 H46       0.045200
     48 H7         -19.6540     4.5090    51.7760 h1         1 H46       0.045200
     49 H8         -21.8660     2.6470    52.8150 h1         1 H46       0.036700
     50 H9         -21.9460    12.5790    45.6500 ha         1 H46       0.120000
     51 H10        -25.9470    15.3540    44.5930 ha         1 H46       0.123000
     52 H11        -23.7020    16.0610    43.8290 ha         1 H46       0.120000
     53 H12        -21.7000    14.6870    44.3800 ha         1 H46       0.120000
     54 H13        -26.1510    13.2120    48.1810 ha         1 H46       0.117000
     55 H14        -28.5060    12.6990    48.8810 ha         1 H46       0.125000
     56 H15        -30.2770    12.4490    47.1300 h4         1 H46       0.020100
     57 H16        -27.5550    13.1710    44.0780 h4         1 H46       0.022100
     58 H17        -22.4830     7.3260    53.0450 h1         1 H46       0.046950
     59 H18        -23.9460     6.9220    52.1390 h1         1 H46       0.046950
     60 H19        -20.2590     6.2560    50.1110 h1         1 H46       0.046950
     61 H20        -20.1240     6.9060    51.7550 h1         1 H46       0.046950
     62 H21        -23.9850     0.7490    56.5170 h1         1 H46       0.050700
     63 H22        -23.3110     2.2450    57.1510 h1         1 H46       0.050700
     64 H23        -25.7870     2.3560    57.1160 hc         1 H46       0.042200
     65 H24        -25.1320     3.5460    55.9700 hc         1 H46       0.042200
     66 H25        -25.8170     2.0160    55.3740 hc         1 H46       0.042200
     67 H26        -23.1550    -0.1250    54.7300 h1         1 H46       0.050700
     68 H27        -21.9910     0.6940    53.7100 h1         1 H46       0.050700
     69 H28        -23.9370    -0.0080    52.3600 hc         1 H46       0.042200
     70 H29        -25.0580     0.8300    53.4490 hc         1 H46       0.042200
     71 H30        -23.9400     1.7670    52.4350 hc         1 H46       0.042200
     72 H31        -19.3570     4.2770    55.1560 ha         1 H46       0.124500
     73 H32        -17.0240     3.4510    55.3790 ha         1 H46       0.113500
     74 H33        -16.2550     1.4950    54.0380 ha         1 H46       0.112000
     75 H34        -17.8290     0.3680    52.4670 ha         1 H46       0.113500
     76 H35        -20.1600     1.1840    52.2360 ha         1 H46       0.124500
     77 H36        -22.5170    11.8140    47.4810 hn         1 H46       0.155000
     78 N30        -23.0350     1.9630    55.0590 n          1 H46      -0.411800
@<TRIPOS>BOND
     1     1     9 1   
     2     1    37 1   
     3     1    40 2   
     4     2    19 ar  
     5     2    20 ar  
     6     2    42 1   
     7     3     4 ar  
     8     3    21 ar  
     9     3    43 1   
    10     4    19 ar  
    11     4    44 1   
    12     5    22 1   
    13     5    39 1   
    14     5    45 1   
    15     5    46 1   
    16     6    23 1   
    17     6    39 1   
    18     6    47 1   
    19     6    48 1   
    20     7    24 1   
    21     7    29 1   
    22     7    39 1   
    23     7    49 1   
    24     8     9 ar  
    25     8    13 ar  
    26     8    50 1   
    27     9    10 ar  
    28    10    11 ar  
    29    10    18 1   
    30    11    12 ar  
    31    11    51 1   
    32    12    13 ar  
    33    12    52 1   
    34    13    53 1   
    35    14    15 ar  
    36    14    18 ar  
    37    14    54 1   
    38    15    16 ar  
    39    15    55 1   
    40    16    36 ar  
    41    16    56 1   
    42    17    18 ar  
    43    17    36 ar  
    44    17    57 1   
    45    19    37 1   
    46    20    21 ar  
    47    20    35 1   
    48    21    38 1   
    49    22    38 1   
    50    22    58 1   
    51    22    59 1   
    52    23    38 1   
    53    23    60 1   
    54    23    61 1   
    55    24    41 2   
    56    24    78 1   
    57    25    26 1   
    58    25    62 1   
    59    25    63 1   
    60    25    78 1   
    61    26    64 1   
    62    26    65 1   
    63    26    66 1   
    64    27    28 1   
    65    27    67 1   
    66    27    68 1   
    67    27    78 1   
    68    28    69 1   
    69    28    70 1   
    70    28    71 1   
    71    29    30 ar  
    72    29    34 ar  
    73    30    31 ar  
    74    30    72 1   
    75    31    32 ar  
    76    31    73 1   
    77    32    33 ar  
    78    32    74 1   
    79    33    34 ar  
    80    33    75 1   
    81    34    76 1   
    82    37    77 1   
@<TRIPOS>SUBSTRUCTURE
     1 H46         1 TEMP              0 ****  ****    0 ROOT
