@<TRIPOS>MOLECULE
H46
   78    82     1     0     0
SMALL
bcc


@<TRIPOS>ATOM
      1 C13        -24.3600    11.1820    46.4760 c          1 H46       0.684700
      2 C17        -23.9470     8.6120    48.0470 ca         1 H46      -0.179000
      3 C20        -21.7420     8.6440    49.7270 ca         1 H46      -0.125000
      4 C21        -22.0040     9.7260    48.9040 ca         1 H46      -0.185000
      5 C24        -23.0630     4.7470    52.1780 c6         1 H46       0.157300
      6 C26        -20.7710     4.8360    51.6070 c6         1 H46       0.157300
      7 C28        -21.5010     3.3230    53.3300 c3         1 H46       0.155800
      8 C01        -23.0950    12.6060    44.8730 ca         1 H46      -0.107000
      9 C02        -24.1860    12.4660    45.7250 ca         1 H46      -0.146600
     10 C03        -25.1610    13.4680    45.7890 cp         1 H46       0.017000
     11 C04        -25.0190    14.5900    44.9760 ca         1 H46      -0.124000
     12 C05        -23.9390    14.7180    44.1140 ca         1 H46      -0.107000
     13 C06        -22.9720    13.7260    44.0640 ca         1 H46      -0.130000
     14 C07        -26.1180    13.1640    48.0880 ca         1 H46      -0.074000
     15 C08        -27.2230    13.1360    48.9210 ca         1 H46      -0.243300
     16 C09        -28.4780    13.3400    48.3650 ca         1 H46       0.408200
     17 C11        -27.6040    13.5860    46.2800 ca         1 H46       0.424200
     18 C12        -26.2990    13.3910    46.7270 cp         1 H46      -0.160300
     19 C16        -23.1130     9.7300    48.0620 ca         1 H46       0.076600
     20 C18        -23.6390     7.5430    48.8610 ca         1 H46       0.145900
     21 C19        -22.5540     7.5100    49.7360 ca         1 H46       0.066600
     22 C23        -23.2760     6.1260    51.5840 c6         1 H46       0.186800
     23 C27        -20.9570     6.2210    51.0200 c6         1 H46       0.186800
     24 C29        -22.4280     3.1940    54.5530 c          1 H46       0.669100
     25 C32        -23.8210     1.8890    56.0140 c3         1 H46       0.104000
     26 C33        -25.2420     2.3730    55.7620 c3         1 H46      -0.116100
     27 C34        -22.7750     0.7900    54.0310 c3         1 H46       0.104000
     28 C35        -23.7890     0.6620    52.9050 c3         1 H46      -0.116100
     29 C36        -20.0820     3.1710    53.8390 ca         1 H46      -0.095300
     30 C37        -19.5290     4.1220    54.6950 ca         1 H46      -0.108500
     31 C38        -18.2310     3.9770    55.1590 ca         1 H46      -0.135500
     32 C39        -17.4680     2.8780    54.7790 ca         1 H46      -0.122000
     33 C40        -18.0100     1.9300    53.9250 ca         1 H46      -0.135500
     34 C41        -19.3100     2.0800    53.4560 ca         1 H46      -0.108500
     35 F42        -24.4380     6.4640    48.7910 f          1 H46      -0.136900
     36 N10        -28.6680    13.5610    47.0700 nb         1 H46      -0.665000
     37 N14        -23.3050    10.8610    47.2620 ns         1 H46      -0.470100
     38 N22        -22.3100     6.3760    50.5210 nh         1 H46      -0.625000
     39 N25        -21.7100     4.6110    52.6940 n3         1 H46      -0.693600
     40 O15        -25.3640    10.5040    46.3500 o          1 H46      -0.557100
     41 O31        -22.6340     4.1750    55.2540 o          1 H46      -0.587100
     42 H1         -24.8080     8.5490    47.4020 ha         1 H46       0.183000
     43 H2         -20.8780     8.6920    50.3760 ha         1 H46       0.137000
     44 H3         -21.3400    10.5810    48.9290 ha         1 H46       0.130000
     45 H4         -23.7900     4.6170    52.9800 h1         1 H46       0.045200
     46 H5         -23.2800     3.9860    51.4090 h1         1 H46       0.045200
     47 H6         -20.8840     4.0830    50.8090 h1         1 H46       0.045200
     48 H7         -19.7480     4.7650    51.9780 h1         1 H46       0.045200
     49 H8         -21.6860     2.5150    52.6060 h1         1 H46       0.036700
     50 H9         -22.3490    11.8230    44.8130 ha         1 H46       0.138000
     51 H10        -25.7520    15.3850    45.0360 ha         1 H46       0.141000
     52 H11        -23.8510    15.5980    43.4910 ha         1 H46       0.138000
     53 H12        -22.1260    13.8190    43.3960 ha         1 H46       0.138000
     54 H13        -25.1250    13.0280    48.4980 ha         1 H46       0.135000
     55 H14        -27.1170    12.9700    49.9840 ha         1 H46       0.143000
     56 H15        -29.3620    13.3250    48.9920 h4         1 H46       0.020100
     57 H16        -27.7910    13.7590    45.2240 h4         1 H46       0.022100
     58 H17        -23.1850     6.8800    52.3800 h1         1 H46       0.046950
     59 H18        -24.2920     6.1820    51.1970 h1         1 H46       0.046950
     60 H19        -20.2510     6.3520    50.1980 h1         1 H46       0.046950
     61 H20        -20.7110     6.9660    51.7920 h1         1 H46       0.046950
     62 H21        -23.8370     0.8430    56.3230 h1         1 H46       0.050700
     63 H22        -23.3790     2.4490    56.8370 h1         1 H46       0.050700
     64 H23        -25.8320     2.2750    56.6740 hc         1 H46       0.042200
     65 H24        -25.2580     3.4200    55.4640 hc         1 H46       0.042200
     66 H25        -25.7340     1.7880    54.9860 hc         1 H46       0.042200
     67 H26        -22.8560    -0.0690    54.6970 h1         1 H46       0.050700
     68 H27        -21.7610     0.7490    53.6370 h1         1 H46       0.050700
     69 H28        -23.6000    -0.2460    52.3320 hc         1 H46       0.042200
     70 H29        -24.8070     0.6080    53.2890 hc         1 H46       0.042200
     71 H30        -23.7320     1.5090    52.2200 hc         1 H46       0.042200
     72 H31        -20.1140     4.9830    54.9910 ha         1 H46       0.142500
     73 H32        -17.8100     4.7240    55.8190 ha         1 H46       0.131500
     74 H33        -16.4540     2.7670    55.1430 ha         1 H46       0.130000
     75 H34        -17.4220     1.0760    53.6140 ha         1 H46       0.131500
     76 H35        -19.7210     1.3440    52.7750 ha         1 H46       0.142500
     77 H36        -22.5750    11.5550    47.3320 hn         1 H46       0.321500
     78 N30        -22.9450     1.9850    54.8490 n          1 H46      -0.478800
@<TRIPOS>BOND
     1     1     9 1   
     2     1    37 1   
     3     1    40 2   
     4     2    19 ar  
     5     2    20 ar  
     6     2    42 1   
     7     3     4 ar  
     8     3    21 ar  
     9     3    43 1   
    10     4    19 ar  
    11     4    44 1   
    12     5    22 1   
    13     5    39 1   
    14     5    45 1   
    15     5    46 1   
    16     6    23 1   
    17     6    39 1   
    18     6    47 1   
    19     6    48 1   
    20     7    24 1   
    21     7    29 1   
    22     7    39 1   
    23     7    49 1   
    24     8     9 ar  
    25     8    13 ar  
    26     8    50 1   
    27     9    10 ar  
    28    10    11 ar  
    29    10    18 1   
    30    11    12 ar  
    31    11    51 1   
    32    12    13 ar  
    33    12    52 1   
    34    13    53 1   
    35    14    15 ar  
    36    14    18 ar  
    37    14    54 1   
    38    15    16 ar  
    39    15    55 1   
    40    16    36 ar  
    41    16    56 1   
    42    17    18 ar  
    43    17    36 ar  
    44    17    57 1   
    45    19    37 1   
    46    20    21 ar  
    47    20    35 1   
    48    21    38 1   
    49    22    38 1   
    50    22    58 1   
    51    22    59 1   
    52    23    38 1   
    53    23    60 1   
    54    23    61 1   
    55    24    41 2   
    56    24    78 1   
    57    25    26 1   
    58    25    62 1   
    59    25    63 1   
    60    25    78 1   
    61    26    64 1   
    62    26    65 1   
    63    26    66 1   
    64    27    28 1   
    65    27    67 1   
    66    27    68 1   
    67    27    78 1   
    68    28    69 1   
    69    28    70 1   
    70    28    71 1   
    71    29    30 ar  
    72    29    34 ar  
    73    30    31 ar  
    74    30    72 1   
    75    31    32 ar  
    76    31    73 1   
    77    32    33 ar  
    78    32    74 1   
    79    33    34 ar  
    80    33    75 1   
    81    34    76 1   
    82    37    77 1   
@<TRIPOS>SUBSTRUCTURE
     1 H46         1 TEMP              0 ****  ****    0 ROOT
