@<TRIPOS>MOLECULE
H47
   29    30     1     0     0
SMALL
No Charge or Current Charge


@<TRIPOS>ATOM
      1 N1          -1.7440    -0.2800    -0.6110 ns         1 H47      -0.487400
      2 C4           3.2410    -1.2530     1.6070 ca         1 H47      -0.071000
      3 C5           2.0290    -1.8110     1.1660 ca         1 H47      -0.126000
      4 C6           1.3930    -1.3110     0.0150 ca         1 H47      -0.041300
      5 C7           0.0760    -1.9130    -0.4590 c3         1 H47      -0.112100
      6 C8          -1.1110    -1.1980     0.1950 c          1 H47       0.614100
      7 C10         -3.5260     0.6190     0.8750 cc         1 H47      -0.237000
      8 C1           4.9560     2.0080    -0.6330 c3         1 H47       0.148900
      9 C2           3.1960     0.3190    -0.2570 ca         1 H47       0.142100
     10 C3           3.8270    -0.1900     0.8990 ca         1 H47      -0.190000
     11 C9          -2.8130     0.5370    -0.3330 cc         1 H47       0.402900
     12 C11         -4.4780     1.5580     0.6590 cd         1 H47       0.171900
     13 O2          -4.3630     2.0360    -0.6200 os         1 H47      -0.061700
     14 N2          -3.2640     1.3570    -1.2620 nd         1 H47      -0.437300
     15 O3          -1.4470    -1.4300     1.3470 o          1 H47      -0.549100
     16 C12          1.9840    -0.2450    -0.6900 ca         1 H47      -0.132000
     17 H1          -1.3540    -0.1950    -1.5390 hn         1 H47       0.336500
     18 H2           3.7260    -1.6460     2.4980 ha         1 H47       0.113000
     19 H3           1.5840    -2.6320     1.7240 ha         1 H47       0.115000
     20 H4           0.0120    -1.8230    -1.5500 hc         1 H47       0.070200
     21 H5           0.0380    -2.9740    -0.1850 hc         1 H47       0.070200
     22 H6          -3.3570     0.0570     1.7830 ha         1 H47       0.178000
     23 H7           5.1890     2.8070    -1.3480 h1         1 H47       0.041033
     24 H8           4.8850     2.4570     0.3660 h1         1 H47       0.041033
     25 H9           5.7880     1.2920    -0.6400 h1         1 H47       0.041033
     26 H10          4.7640     0.2230     1.2610 ha         1 H47       0.117000
     27 H11         -5.2590     1.9600     1.2910 h4         1 H47       0.057100
     28 H12          1.5050     0.1540    -1.5810 ha         1 H47       0.125000
     29 O1           3.7220     1.3620    -0.9920 os         1 H47      -0.343100
@<TRIPOS>BOND
     1     1     6 1   
     2     1    11 1   
     3     1    17 1   
     4     2     3 ar  
     5     2    10 ar  
     6     2    18 1   
     7     3     4 ar  
     8     3    19 1   
     9     4     5 1   
    10     4    16 ar  
    11     5     6 1   
    12     5    20 1   
    13     5    21 1   
    14     6    15 2   
    15     7    11 1   
    16     7    12 2   
    17     7    22 1   
    18     8    23 1   
    19     8    24 1   
    20     8    25 1   
    21     8    29 1   
    22     9    10 ar  
    23     9    16 ar  
    24     9    29 1   
    25    10    26 1   
    26    11    14 2   
    27    12    13 1   
    28    12    27 1   
    29    13    14 1   
    30    16    28 1   
@<TRIPOS>SUBSTRUCTURE
     1 H47         1 TEMP              0 ****  ****    0 ROOT
