@<TRIPOS>MOLECULE
H47
   29    30     1     0     0
SMALL
bcc


@<TRIPOS>ATOM
      1 N1          -2.1700    -0.4830    -0.6580 ns         1 H47      -0.554400
      2 C4           3.2040    -1.3380     1.4730 ca         1 H47      -0.089000
      3 C5           1.9520    -1.6200     0.9550 ca         1 H47      -0.144000
      4 C6           1.4860    -0.9090    -0.1500 ca         1 H47      -0.041300
      5 C7           0.1270    -1.1910    -0.7160 c3         1 H47      -0.112100
      6 C8          -0.9680    -0.4110    -0.0160 c          1 H47       0.681100
      7 C10         -3.6380     0.8470     0.9290 cc         1 H47      -0.385600
      8 C1           5.5270     1.6570    -0.3330 c3         1 H47       0.125700
      9 C2           3.5460     0.3580    -0.1920 ca         1 H47       0.142100
     10 C3           4.0100    -0.3530     0.9120 ca         1 H47      -0.208000
     11 C9          -3.3530     0.0790    -0.2340 cc         1 H47       0.468200
     12 C11         -4.9560     1.1050     0.7940 cd         1 H47       0.281600
     13 O2          -5.4270     0.5590    -0.3230 os         1 H47      -0.106100
     14 N2          -4.4180    -0.0870    -0.9720 nd         1 H47      -0.437300
     15 O3          -0.8050     0.2000     1.0170 o          1 H47      -0.549100
     16 C12          2.2820     0.0730    -0.7150 ca         1 H47      -0.150000
     17 H1          -2.2170    -1.0060    -1.5210 hn         1 H47       0.336500
     18 H2           3.5710    -1.8910     2.3280 ha         1 H47       0.131000
     19 H3           1.3380    -2.3920     1.4010 ha         1 H47       0.133000
     20 H4           0.0950    -0.9720    -1.7860 hc         1 H47       0.070200
     21 H5          -0.1140    -2.2550    -0.6190 hc         1 H47       0.070200
     22 H6          -2.9820     1.1530     1.7220 ha         1 H47       0.196000
     23 H7           5.9080     2.4450    -0.9780 h1         1 H47       0.041033
     24 H8           5.4950     2.0280     0.6940 h1         1 H47       0.041033
     25 H9           6.2090     0.8040    -0.3780 h1         1 H47       0.041033
     26 H10          4.9840    -0.1620     1.3400 ha         1 H47       0.135000
     27 H11         -5.6580     1.6500     1.4050 h4         1 H47       0.057100
     28 H12          1.9320     0.6300    -1.5770 ha         1 H47       0.143000
     29 O1           4.2390     1.3290    -0.8170 os         1 H47      -0.319900
@<TRIPOS>BOND
     1     1     6 1   
     2     1    11 1   
     3     1    17 1   
     4     2     3 ar  
     5     2    10 ar  
     6     2    18 1   
     7     3     4 ar  
     8     3    19 1   
     9     4     5 1   
    10     4    16 ar  
    11     5     6 1   
    12     5    20 1   
    13     5    21 1   
    14     6    15 2   
    15     7    11 1   
    16     7    12 2   
    17     7    22 1   
    18     8    23 1   
    19     8    24 1   
    20     8    25 1   
    21     8    29 1   
    22     9    10 ar  
    23     9    16 ar  
    24     9    29 1   
    25    10    26 1   
    26    11    14 2   
    27    12    13 1   
    28    12    27 1   
    29    13    14 1   
    30    16    28 1   
@<TRIPOS>SUBSTRUCTURE
     1 H47         1 TEMP              0 ****  ****    0 ROOT
