@<TRIPOS>MOLECULE
H48
   30    31     1     0     0
SMALL
abcg2


@<TRIPOS>ATOM
      1 CAA          0.0370     2.5530    -1.3650 c3         1 H48      -0.081100
      2 CAD         -3.1620     0.0000     1.1980 ca         1 H48      -0.174000
      3 CAE         -2.8070    -0.7710    -1.0480 ca         1 H48      -0.174000
      4 CAF          2.8740    -0.3270     1.4150 ca         1 H48      -0.174000
      5 CAG          2.9310    -0.6940    -0.9570 ca         1 H48      -0.174000
      6 CAH         -2.0200     0.7850     1.0960 ca         1 H48      -0.065250
      7 CAI         -1.6710     0.0170    -1.1290 ca         1 H48      -0.065250
      8 CAJ          1.7800     0.5060     1.2440 ca         1 H48      -0.065250
      9 CAK          1.8360     0.1460    -1.1070 ca         1 H48      -0.065250
     10 CAL         -3.5620    -0.7860     0.1230 ca         1 H48       0.137100
     11 CAM          3.4580    -0.9380     0.3070 ca         1 H48       0.137100
     12 CAN         -1.2520     0.8090    -0.0620 ca         1 H48      -0.108800
     13 CAO          1.2360     0.7620    -0.0130 ca         1 H48      -0.108800
     14 CAP          0.0100     1.6450    -0.1360 c3         1 H48       0.043900
     15 OAC          4.5220    -1.7420     0.5150 oh         1 H48      -0.534600
     16 H1          -0.8300     3.2130    -1.3640 hc         1 H48       0.037033
     17 H2           0.9350     3.1710    -1.3670 hc         1 H48       0.037033
     18 H3           0.0190     1.9930    -2.3000 hc         1 H48       0.037033
     19 H4          -3.7370     0.0060     2.1170 ha         1 H48       0.119500
     20 H5          -3.1110    -1.3800    -1.8910 ha         1 H48       0.119500
     21 H6           3.2780    -0.5030     2.4040 ha         1 H48       0.119500
     22 H7           3.3760    -1.1560    -1.8320 ha         1 H48       0.119500
     23 H8          -1.7280     1.3930     1.9450 ha         1 H48       0.110750
     24 H9          -1.1030     0.0040    -2.0520 ha         1 H48       0.110750
     25 H10          1.3400     0.9730     2.1190 ha         1 H48       0.110750
     26 H11          1.4600     0.3130    -2.1090 ha         1 H48       0.110750
     27 H12          0.0050     2.2990     0.7420 hc         1 H48       0.051700
     28 H13         -5.0830    -1.5160     1.0220 ho         1 H48       0.463000
     29 H14          4.8380    -2.1000    -0.3220 ho         1 H48       0.463000
     30 OAB         -4.6600    -1.5710     0.1580 oh         1 H48      -0.534600
@<TRIPOS>BOND
     1     1    14 1   
     2     1    16 1   
     3     1    17 1   
     4     1    18 1   
     5     2     6 ar  
     6     2    10 ar  
     7     2    19 1   
     8     3     7 ar  
     9     3    10 ar  
    10     3    20 1   
    11     4     8 ar  
    12     4    11 ar  
    13     4    21 1   
    14     5     9 ar  
    15     5    11 ar  
    16     5    22 1   
    17     6    12 ar  
    18     6    23 1   
    19     7    12 ar  
    20     7    24 1   
    21     8    13 ar  
    22     8    25 1   
    23     9    13 ar  
    24     9    26 1   
    25    10    30 1   
    26    11    15 1   
    27    12    14 1   
    28    13    14 1   
    29    14    27 1   
    30    15    29 1   
    31    28    30 1   
@<TRIPOS>SUBSTRUCTURE
     1 H48         1 TEMP              0 ****  ****    0 ROOT
