@<TRIPOS>MOLECULE
H48
   30    31     1     0     0
SMALL
No Charge or Current Charge


@<TRIPOS>ATOM
      1 CAA         -0.0100     2.5480    -1.3520 c3         1 H48      -0.081100
      2 CAD         -3.3180     0.1770     1.1510 ca         1 H48      -0.174000
      3 CAE         -2.7270    -0.9590    -0.9130 ca         1 H48      -0.174000
      4 CAF          2.8310    -0.5130     1.3880 ca         1 H48      -0.174000
      5 CAG          3.0910    -0.5490    -1.0250 ca         1 H48      -0.174000
      6 CAH         -2.1480     0.9520     1.0600 ca         1 H48      -0.065250
      7 CAI         -1.5570    -0.1860    -1.0070 ca         1 H48      -0.065250
      8 CAJ          1.7020     0.3140     1.2550 ca         1 H48      -0.065250
      9 CAK          1.9630     0.2790    -1.1620 ca         1 H48      -0.065250
     10 CAL         -3.6060    -0.7780     0.1630 ca         1 H48       0.137100
     11 CAM          3.5260    -0.9430     0.2490 ca         1 H48       0.137100
     12 CAN         -1.2590     0.7780    -0.0210 ca         1 H48      -0.108800
     13 CAO          1.2590     0.7240    -0.0190 ca         1 H48      -0.108800
     14 CAP          0.0150     1.6190    -0.1150 c3         1 H48       0.043900
     15 OAC          4.6180    -1.7450     0.3870 oh         1 H48      -0.534600
     16 H1          -0.8470     3.2530    -1.2780 hc         1 H48       0.037033
     17 H2           0.9180     3.1300    -1.4160 hc         1 H48       0.037033
     18 H3          -0.1330     1.9840    -2.2830 hc         1 H48       0.037033
     19 H4          -3.9930     0.3240     1.9910 ha         1 H48       0.119500
     20 H5          -2.9500    -1.7000    -1.6770 ha         1 H48       0.119500
     21 H6           3.1640    -0.8210     2.3750 ha         1 H48       0.119500
     22 H7           3.6210    -0.8810    -1.9150 ha         1 H48       0.119500
     23 H8          -1.9340     1.6870     1.8330 ha         1 H48       0.110750
     24 H9          -0.8810    -0.3400    -1.8450 ha         1 H48       0.110750
     25 H10          1.1690     0.6360     2.1470 ha         1 H48       0.110750
     26 H11          1.6420     0.5620    -2.1610 ha         1 H48       0.110750
     27 H12          0.0440     2.2980     0.7480 hc         1 H48       0.051700
     28 H13         -5.2260    -1.2710     1.0550 ho         1 H48       0.463000
     29 H14          4.9720    -1.9440    -0.5060 ho         1 H48       0.463000
     30 OAB         -4.7380    -1.5320     0.2450 oh         1 H48      -0.534600
@<TRIPOS>BOND
     1     1    14 1   
     2     1    16 1   
     3     1    17 1   
     4     1    18 1   
     5     2     6 ar  
     6     2    10 ar  
     7     2    19 1   
     8     3     7 ar  
     9     3    10 ar  
    10     3    20 1   
    11     4     8 ar  
    12     4    11 ar  
    13     4    21 1   
    14     5     9 ar  
    15     5    11 ar  
    16     5    22 1   
    17     6    12 ar  
    18     6    23 1   
    19     7    12 ar  
    20     7    24 1   
    21     8    13 ar  
    22     8    25 1   
    23     9    13 ar  
    24     9    26 1   
    25    10    30 1   
    26    11    15 1   
    27    12    14 1   
    28    13    14 1   
    29    14    27 1   
    30    15    29 1   
    31    28    30 1   
@<TRIPOS>SUBSTRUCTURE
     1 H48         1 TEMP              0 ****  ****    0 ROOT
