@<TRIPOS>MOLECULE
H49
   44    46     1     0     0
SMALL
No Charge or Current Charge


@<TRIPOS>ATOM
      1 C22         -6.6200    -1.4560    -0.7640 c5         1 H49      -0.110400
      2 C21         -7.2850    -2.0020     0.5310 c5         1 H49      -0.113400
      3 C20         -6.5540    -1.2360     1.6760 c5         1 H49       0.132800
      4 N19         -5.6130    -0.3110     1.0000 n7         1 H49      -0.824400
      5 C18         -5.2300    -1.0350    -0.2380 c5         1 H49       0.134500
      6 C17         -4.4040    -0.1670    -1.2340 c3         1 H49       0.167800
      7 N16         -3.1350     0.2880    -0.6310 n7         1 H49      -0.862400
      8 C15         -2.4100     1.3200    -1.3910 c3         1 H49       0.206100
      9 C12         -1.1560     1.7560    -0.6430 ca         1 H49      -0.059300
     10 C13          0.0360     1.0120    -0.7580 ca         1 H49      -0.154000
     11 C11         -1.1740     2.9050     0.1700 ca         1 H49      -0.143000
     12 C10         -0.0170     3.2990     0.8610 ca         1 H49      -0.087000
     13 C09          1.1660     2.5500     0.7370 ca         1 H49      -0.132000
     14 C08          1.2040     1.4050    -0.0830 ca         1 H49       0.310000
     15 N07          2.3470     0.6120    -0.2280 nu         1 H49      -0.919200
     16 C06          3.6830     0.8340     0.0150 ce         1 H49       0.715800
     17 N14          4.1620     2.0050     0.1430 n2         1 H49      -0.824100
     18 C05          4.5770    -0.3150     0.0310 cc         1 H49      -0.344900
     19 S01          3.9480    -1.9670    -0.0220 ss         1 H49       0.240000
     20 C02          5.5690    -2.6420     0.0570 cc         1 H49      -0.236000
     21 C03          6.5090    -1.6490     0.1280 cd         1 H49      -0.135000
     22 C04          5.9550    -0.3420     0.1170 cd         1 H49      -0.101000
     23 H221        -6.5600    -2.2120    -1.5560 hc         1 H49       0.047700
     24 H222        -7.1750    -0.6010    -1.1690 hc         1 H49       0.047700
     25 H211        -8.3670    -1.8240     0.5390 hc         1 H49       0.046700
     26 H212        -7.1350    -3.0830     0.6330 hc         1 H49       0.046700
     27 H18         -4.6300    -1.9250     0.0070 h1         1 H49       0.079700
     28 H201        -7.2540    -0.6910     2.3250 h1         1 H49       0.054700
     29 H202        -6.0010    -1.9450     2.3090 h1         1 H49       0.054700
     30 H19         -6.1350     0.5260     0.7170 hn         1 H49       0.392000
     31 H171        -4.2080    -0.7520    -2.1430 h1         1 H49       0.027700
     32 H172        -5.0160     0.6990    -1.5220 h1         1 H49       0.027700
     33 H16         -3.3760     0.6800     0.2880 hn         1 H49       0.429000
     34 H151        -2.1240     0.9360    -2.3800 h1         1 H49       0.033700
     35 H152        -3.0520     2.1970    -1.5550 h1         1 H49       0.033700
     36 H13          0.0470     0.1230    -1.3830 ha         1 H49       0.125000
     37 H11         -2.0870     3.4880     0.2720 ha         1 H49       0.109000
     38 H10         -0.0380     4.1820     1.4960 ha         1 H49       0.111000
     39 H09          2.0430     2.8600     1.2950 ha         1 H49       0.150000
     40 H141         5.1700     1.8990     0.2970 hn         1 H49       0.393400
     41 H142         2.1770    -0.2970    -0.6350 hn         1 H49       0.494000
     42 H04          6.5770     0.5480     0.1690 ha         1 H49       0.140000
     43 H02          5.7030    -3.7160     0.0480 h4         1 H49       0.154000
     44 H03          7.5760    -1.8420     0.1870 ha         1 H49       0.139000
@<TRIPOS>BOND
     1     1     2 1   
     2     1     5 1   
     3     1    23 1   
     4     1    24 1   
     5     2     3 1   
     6     2    25 1   
     7     2    26 1   
     8     3     4 1   
     9     3    28 1   
    10     3    29 1   
    11     4     5 1   
    12     4    30 1   
    13     5     6 1   
    14     5    27 1   
    15     6     7 1   
    16     6    31 1   
    17     6    32 1   
    18     7     8 1   
    19     7    33 1   
    20     8     9 1   
    21     8    34 1   
    22     8    35 1   
    23     9    10 ar  
    24     9    11 ar  
    25    10    14 ar  
    26    10    36 1   
    27    11    12 ar  
    28    11    37 1   
    29    12    13 ar  
    30    12    38 1   
    31    13    14 ar  
    32    13    39 1   
    33    14    15 1   
    34    15    16 1   
    35    15    41 1   
    36    16    17 2   
    37    16    18 1   
    38    17    40 1   
    39    18    19 1   
    40    18    22 2   
    41    19    20 1   
    42    20    21 2   
    43    20    43 1   
    44    21    22 1   
    45    21    44 1   
    46    22    42 1   
@<TRIPOS>SUBSTRUCTURE
     1 H49         1 TEMP              0 ****  ****    0 ROOT
