@<TRIPOS>MOLECULE
H49
   44    46     1     0     0
SMALL
bcc


@<TRIPOS>ATOM
      1 C22         -6.0840    -1.6770    -0.9180 c5         1 H49      -0.110400
      2 C21         -6.6970    -2.4370     0.2740 c5         1 H49      -0.113400
      3 C20         -5.7480    -2.1200     1.4510 c5         1 H49       0.132800
      4 N19         -4.9760    -0.9420     1.0710 n7         1 H49      -0.769200
      5 C18         -4.7640    -1.1130    -0.3650 c5         1 H49       0.134500
      6 C17         -4.3120     0.1720    -1.0280 c3         1 H49       0.167800
      7 N16         -3.0250     0.6060    -0.5220 n7         1 H49      -0.807200
      8 C15         -2.6310     1.8980    -1.0420 c3         1 H49       0.206100
      9 C12         -1.2610     2.3120    -0.5720 ca         1 H49      -0.059300
     10 C13         -0.2370     1.3800    -0.4770 ca         1 H49      -0.172000
     11 C11         -0.9930     3.6420    -0.2580 ca         1 H49      -0.161000
     12 C10          0.2840     4.0140     0.1310 ca         1 H49      -0.105000
     13 C09          1.3140     3.0880     0.2190 ca         1 H49      -0.150000
     14 C08          1.0540     1.7500    -0.0870 ca         1 H49       0.171600
     15 N07          1.9950     0.7250    -0.0080 nu         1 H49      -0.725600
     16 C06          3.3530     0.7970     0.1610 ce         1 H49       0.715800
     17 N14          3.9900     1.9020     0.1880 n2         1 H49      -0.824100
     18 C05          3.9990    -0.5230     0.2990 cc         1 H49      -0.200000
     19 S01          3.2520    -1.8330     1.1360 ss         1 H49      -0.049800
     20 C02          4.5960    -2.8530     0.8590 cc         1 H49      -0.109100
     21 C03          5.5770    -2.2170     0.1600 cd         1 H49      -0.153000
     22 C04          5.2370    -0.8780    -0.1590 cd         1 H49      -0.119000
     23 H221        -5.9260    -2.3110    -1.7910 hc         1 H49       0.047700
     24 H222        -6.7340    -0.8550    -1.2310 hc         1 H49       0.047700
     25 H211        -7.7090    -2.0870     0.4820 hc         1 H49       0.046700
     26 H212        -6.7620    -3.5100     0.0910 hc         1 H49       0.046700
     27 H18         -3.9750    -1.8660    -0.4910 h1         1 H49       0.079700
     28 H201        -6.2700    -1.9510     2.3930 h1         1 H49       0.054700
     29 H202        -5.0580    -2.9540     1.6080 h1         1 H49       0.054700
     30 H19         -5.5670    -0.1250     1.2000 hn         1 H49       0.336800
     31 H171        -4.2280     0.0060    -2.1060 h1         1 H49       0.027700
     32 H172        -5.1020     0.9330    -0.8940 h1         1 H49       0.027700
     33 H16         -3.0720     0.6520     0.4890 hn         1 H49       0.373800
     34 H151        -2.6230     1.8320    -2.1350 h1         1 H49       0.033700
     35 H152        -3.3500     2.6960    -0.7990 h1         1 H49       0.033700
     36 H13         -0.4500     0.3420    -0.7050 ha         1 H49       0.143000
     37 H11         -1.7820     4.3830    -0.3160 ha         1 H49       0.127000
     38 H10          0.4910     5.0480     0.3750 ha         1 H49       0.129000
     39 H09          2.3030     3.3980     0.5130 ha         1 H49       0.168000
     40 H141         4.9700     1.7370     0.3850 hn         1 H49       0.393400
     41 H142         1.6330    -0.1830    -0.2530 hn         1 H49       0.438800
     42 H04          5.8740    -0.2130    -0.7250 ha         1 H49       0.158000
     43 H02          4.5960    -3.8650     1.2340 h4         1 H49       0.172000
     44 H03          6.5080    -2.6860    -0.1230 ha         1 H49       0.157000
@<TRIPOS>BOND
     1     1     2 1   
     2     1     5 1   
     3     1    23 1   
     4     1    24 1   
     5     2     3 1   
     6     2    25 1   
     7     2    26 1   
     8     3     4 1   
     9     3    28 1   
    10     3    29 1   
    11     4     5 1   
    12     4    30 1   
    13     5     6 1   
    14     5    27 1   
    15     6     7 1   
    16     6    31 1   
    17     6    32 1   
    18     7     8 1   
    19     7    33 1   
    20     8     9 1   
    21     8    34 1   
    22     8    35 1   
    23     9    10 ar  
    24     9    11 ar  
    25    10    14 ar  
    26    10    36 1   
    27    11    12 ar  
    28    11    37 1   
    29    12    13 ar  
    30    12    38 1   
    31    13    14 ar  
    32    13    39 1   
    33    14    15 1   
    34    15    16 1   
    35    15    41 1   
    36    16    17 2   
    37    16    18 1   
    38    17    40 1   
    39    18    19 1   
    40    18    22 2   
    41    19    20 1   
    42    20    21 2   
    43    20    43 1   
    44    21    22 1   
    45    21    44 1   
    46    22    42 1   
@<TRIPOS>SUBSTRUCTURE
     1 H49         1 TEMP              0 ****  ****    0 ROOT
