@<TRIPOS>MOLECULE
H4A
   38    41     1     0     0
SMALL
No Charge or Current Charge


@<TRIPOS>ATOM
      1 N1          37.0390   -42.5440    78.7500 n7         1 H4A      -0.825400
      2 C4          33.0800   -45.6740    74.8740 ca         1 H4A      -0.068300
      3 C5          33.5510   -45.5550    73.5430 ca         1 H4A      -0.100500
      4 C6          32.6580   -45.3450    72.4780 ca         1 H4A      -0.115500
      5 C7          31.2780   -45.2650    72.7170 ca         1 H4A      -0.113000
      6 C8          30.7920   -45.4080    74.0240 ca         1 H4A      -0.115500
      7 C10         33.7850   -44.8850    77.2500 c5         1 H4A       0.152500
      8 C13         35.9940   -43.3590    79.4010 c5         1 H4A       0.137800
      9 C15         35.8680   -43.8930    77.0560 c5         1 H4A       0.092200
     10 O1          36.0460   -43.9960    74.6510 oh         1 H4A      -0.654000
     11 C1          36.3230   -44.7490    75.8290 c6         1 H4A       0.204300
     12 C2          35.5450   -46.0990    75.8040 c6         1 H4A      -0.057400
     13 C3          34.0110   -45.9330    76.0940 c6         1 H4A       0.009600
     14 C9          31.6830   -45.6170    75.0890 ca         1 H4A      -0.100500
     15 C11         34.4980   -45.2440    78.5940 c5         1 H4A      -0.098400
     16 C12         35.9130   -44.5820    78.4460 c5         1 H4A      -0.134700
     17 C14         36.6710   -42.5600    77.3010 c5         1 H4A       0.138800
     18 N2          34.4180   -43.5920    76.8890 n7         1 H4A      -0.802400
     19 H1          37.9280   -43.0500    78.8540 hn         1 H4A       0.397000
     20 H3          34.6070   -45.6270    73.3060 ha         1 H4A       0.121500
     21 H4          33.0380   -45.2480    71.4630 ha         1 H4A       0.108500
     22 H5          30.5890   -45.1050    71.8910 ha         1 H4A       0.109000
     23 H6          29.7210   -45.3620    74.2120 ha         1 H4A       0.108500
     24 H7          32.7070   -44.7650    77.4190 h1         1 H4A       0.072700
     25 H8          35.0470   -42.8010    79.4520 h1         1 H4A       0.058200
     26 H9          36.2720   -43.6470    80.4250 h1         1 H4A       0.058200
     27 H10         35.1860   -43.5760    74.8850 ho         1 H4A       0.440000
     28 H11         37.4000   -44.9590    75.8980 h1         1 H4A       0.021700
     29 H12         35.7310   -46.6520    74.8760 hc         1 H4A       0.050700
     30 H13         35.9720   -46.7410    76.5870 hc         1 H4A       0.050700
     31 H14         33.6800   -46.9020    76.4910 hc         1 H4A       0.044700
     32 H15         31.2760   -45.7460    76.0890 ha         1 H4A       0.121500
     33 H16         33.9390   -44.8520    79.4520 hc         1 H4A       0.051200
     34 H17         34.5640   -46.3270    78.7420 hc         1 H4A       0.051200
     35 H18         36.7530   -45.2770    78.5660 hc         1 H4A       0.059700
     36 H19         37.5730   -42.5080    76.6750 h1         1 H4A       0.059700
     37 H20         36.0570   -41.6830    77.0470 h1         1 H4A       0.059700
     38 H21         34.1530   -42.9000    77.5970 hn         1 H4A       0.405000
@<TRIPOS>BOND
     1     1     8 1   
     2     1    17 1   
     3     1    19 1   
     4     2     3 ar  
     5     2    13 1   
     6     2    14 ar  
     7     3     4 ar  
     8     3    20 1   
     9     4     5 ar  
    10     4    21 1   
    11     5     6 ar  
    12     5    22 1   
    13     6    14 ar  
    14     6    23 1   
    15     7    13 1   
    16     7    15 1   
    17     7    18 1   
    18     7    24 1   
    19     8    16 1   
    20     8    25 1   
    21     8    26 1   
    22     9    11 1   
    23     9    16 1   
    24     9    17 1   
    25     9    18 1   
    26    10    11 1   
    27    10    27 1   
    28    11    12 1   
    29    11    28 1   
    30    12    13 1   
    31    12    29 1   
    32    12    30 1   
    33    13    31 1   
    34    14    32 1   
    35    15    16 1   
    36    15    33 1   
    37    15    34 1   
    38    16    35 1   
    39    17    36 1   
    40    17    37 1   
    41    18    38 1   
@<TRIPOS>SUBSTRUCTURE
     1 H4A         1 TEMP              0 ****  ****    0 ROOT
