@<TRIPOS>MOLECULE
H4A
   38    41     1     0     0
SMALL
abcg2


@<TRIPOS>ATOM
      1 N1          37.0780   -42.5560    78.6260 n7         1 H4A      -0.825400
      2 C4          33.0310   -45.7170    74.9330 ca         1 H4A      -0.068300
      3 C5          33.4650   -45.1460    73.7360 ca         1 H4A      -0.100500
      4 C6          32.5870   -44.9690    72.6690 ca         1 H4A      -0.115500
      5 C7          31.2570   -45.3590    72.7760 ca         1 H4A      -0.113000
      6 C8          30.8110   -45.9330    73.9640 ca         1 H4A      -0.115500
      7 C10         33.6730   -44.8120    77.1980 c5         1 H4A       0.152500
      8 C13         36.1380   -43.4060    79.3710 c5         1 H4A       0.137800
      9 C15         35.7550   -43.8440    77.0290 c5         1 H4A       0.092200
     10 O1          36.3370   -44.1860    74.6520 oh         1 H4A      -0.654000
     11 C1          36.2880   -44.7920    75.9500 c6         1 H4A       0.204300
     12 C2          35.4370   -46.0690    75.8780 c6         1 H4A      -0.057400
     13 C3          33.9190   -45.9150    76.1440 c6         1 H4A       0.009600
     14 C9          31.6910   -46.1100    75.0250 ca         1 H4A      -0.100500
     15 C11         34.3470   -45.1450    78.5540 c5         1 H4A      -0.098400
     16 C12         35.7600   -44.5500    78.4210 c5         1 H4A      -0.134700
     17 C14         36.5790   -42.5540    77.2360 c5         1 H4A       0.138800
     18 N2          34.3340   -43.5810    76.7390 n7         1 H4A      -0.802400
     19 H1          37.9870   -43.0080    78.6350 hn         1 H4A       0.397000
     20 H3          34.4920   -44.8250    73.6430 ha         1 H4A       0.121500
     21 H4          32.9470   -44.5210    71.7500 ha         1 H4A       0.108500
     22 H5          30.5760   -45.2230    71.9450 ha         1 H4A       0.109000
     23 H6          29.7790   -46.2480    74.0620 ha         1 H4A       0.108500
     24 H7          32.6010   -44.6470    77.3020 h1         1 H4A       0.072700
     25 H8          35.2470   -42.8190    79.6180 h1         1 H4A       0.058200
     26 H9          36.5850   -43.7440    80.3060 h1         1 H4A       0.058200
     27 H10         36.9100   -43.4110    74.6940 ho         1 H4A       0.440000
     28 H11         37.3080   -45.0790    76.2330 h1         1 H4A       0.021700
     29 H12         35.6120   -46.5570    74.9180 hc         1 H4A       0.050700
     30 H13         35.8290   -46.7450    76.6390 hc         1 H4A       0.050700
     31 H14         33.5880   -46.8500    76.6050 hc         1 H4A       0.044700
     32 H15         31.3350   -46.5640    75.9430 ha         1 H4A       0.121500
     33 H16         33.7990   -44.6600    79.3640 hc         1 H4A       0.051200
     34 H17         34.3570   -46.2160    78.7590 hc         1 H4A       0.051200
     35 H18         36.5340   -45.3180    78.4660 hc         1 H4A       0.059700
     36 H19         37.4220   -42.4640    76.5500 h1         1 H4A       0.059700
     37 H20         35.9350   -41.6850    77.0750 h1         1 H4A       0.059700
     38 H21         34.0190   -42.8020    77.3100 hn         1 H4A       0.405000
@<TRIPOS>BOND
     1     1     8 1   
     2     1    17 1   
     3     1    19 1   
     4     2     3 ar  
     5     2    13 1   
     6     2    14 ar  
     7     3     4 ar  
     8     3    20 1   
     9     4     5 ar  
    10     4    21 1   
    11     5     6 ar  
    12     5    22 1   
    13     6    14 ar  
    14     6    23 1   
    15     7    13 1   
    16     7    15 1   
    17     7    18 1   
    18     7    24 1   
    19     8    16 1   
    20     8    25 1   
    21     8    26 1   
    22     9    11 1   
    23     9    16 1   
    24     9    17 1   
    25     9    18 1   
    26    10    11 1   
    27    10    27 1   
    28    11    12 1   
    29    11    28 1   
    30    12    13 1   
    31    12    29 1   
    32    12    30 1   
    33    13    31 1   
    34    14    32 1   
    35    15    16 1   
    36    15    33 1   
    37    15    34 1   
    38    16    35 1   
    39    17    36 1   
    40    17    37 1   
    41    18    38 1   
@<TRIPOS>SUBSTRUCTURE
     1 H4A         1 TEMP              0 ****  ****    0 ROOT
