@<TRIPOS>MOLECULE
H4C
   39    42     1     0     0
SMALL
No Charge or Current Charge


@<TRIPOS>ATOM
      1 C            0.9660     4.9500     1.1290 c3         1 H4C      -0.094100
      2 N            1.8600    -0.8920    -0.0080 na         1 H4C      -0.059000
      3 S            1.9890     1.8980    -0.3860 ss         1 H4C       0.287000
      4 Cl          -1.4870    -0.4730    -2.2190 cl         1 H4C      -0.211000
      5 C1           0.3460     4.2060    -0.0680 c3         1 H4C      -0.027100
      6 N1           3.6190    -2.1620     0.0180 na         1 H4C       0.035800
      7 C2           0.4840     2.7110     0.0460 cc         1 H4C      -0.131300
      8 N2           2.8580    -2.5220     1.1250 n2         1 H4C      -0.427800
      9 C3          -0.4780     1.8110     0.4550 cd         1 H4C      -0.105000
     10 N3          -0.5900    -1.5940     1.7050 n2         1 H4C      -0.545900
     11 C4          -0.0700     0.4400     0.4590 cd         1 H4C      -0.136900
     12 C5           1.2440     0.3690     0.0460 cc         1 H4C      -0.233200
     13 C6           3.0650    -1.0860    -0.6560 cc         1 H4C       0.007400
     14 C7           3.5560    -0.4820    -1.9490 c3         1 H4C      -0.062800
     15 C8           1.8340    -1.7210     1.1060 cc         1 H4C       0.446800
     16 C9           0.8010    -1.6610     2.2130 c3         1 H4C       0.063500
     17 C10         -0.9410    -0.6930     0.8340 cf         1 H4C       0.560500
     18 C11         -2.3570    -0.6690     0.4140 ca         1 H4C      -0.160900
     19 C12         -3.3840    -0.8170     1.3740 ca         1 H4C      -0.058000
     20 C13         -4.7350    -0.8120     0.9840 ca         1 H4C      -0.103000
     21 C14         -5.0750    -0.6770    -0.3710 ca         1 H4C      -0.070000
     22 C15         -4.0620    -0.5580    -1.3360 ca         1 H4C      -0.100000
     23 C16         -2.7100    -0.5600    -0.9510 ca         1 H4C       0.143000
     24 H            0.8380     6.0330     1.0160 hc         1 H4C       0.049367
     25 HA           0.4850     4.6430     2.0650 hc         1 H4C       0.049367
     26 HB           2.0390     4.7370     1.2060 hc         1 H4C       0.049367
     27 H1          -0.7140     4.4780    -0.1480 hc         1 H4C       0.073700
     28 H1A          0.8240     4.5540    -0.9930 hc         1 H4C       0.073700
     29 HN1          4.4800    -2.6700    -0.1860 hn         1 H4C       0.436000
     30 H3          -1.4770     2.1230     0.7480 ha         1 H4C       0.171000
     31 H7           4.2500     0.3460    -1.7620 hc         1 H4C       0.104367
     32 H7A          4.0840    -1.2260    -2.5580 hc         1 H4C       0.104367
     33 H7B          2.7220    -0.1020    -2.5520 hc         1 H4C       0.104367
     34 H9           1.0310    -0.7870     2.8370 h1         1 H4C       0.108700
     35 H9A          0.9320    -2.5460     2.8480 h1         1 H4C       0.108700
     36 H12         -3.1380    -0.9220     2.4290 ha         1 H4C       0.132000
     37 H13         -5.5170    -0.9150     1.7330 ha         1 H4C       0.137000
     38 H14         -6.1210    -0.6760    -0.6740 ha         1 H4C       0.136000
     39 H15         -4.3230    -0.4730    -2.3880 ha         1 H4C       0.143000
@<TRIPOS>BOND
     1     1     5 1   
     2     1    24 1   
     3     1    25 1   
     4     1    26 1   
     5     2    12 1   
     6     2    13 2   
     7     2    15 1   
     8     3     7 1   
     9     3    12 1   
    10     4    23 1   
    11     5     7 1   
    12     5    27 1   
    13     5    28 1   
    14     6     8 1   
    15     6    13 1   
    16     6    29 1   
    17     7     9 2   
    18     8    15 2   
    19     9    11 1   
    20     9    30 1   
    21    10    16 1   
    22    10    17 2   
    23    11    12 2   
    24    11    17 1   
    25    13    14 1   
    26    14    31 1   
    27    14    32 1   
    28    14    33 1   
    29    15    16 1   
    30    16    34 1   
    31    16    35 1   
    32    17    18 1   
    33    18    19 ar  
    34    18    23 ar  
    35    19    20 ar  
    36    19    36 1   
    37    20    21 ar  
    38    20    37 1   
    39    21    22 ar  
    40    21    38 1   
    41    22    23 ar  
    42    22    39 1   
@<TRIPOS>SUBSTRUCTURE
     1 H4C         1 TEMP              0 ****  ****    0 ROOT
