@<TRIPOS>MOLECULE
H4C
   39    42     1     0     0
SMALL
bcc


@<TRIPOS>ATOM
      1 C            1.1030     5.0130     0.8940 c3         1 H4C      -0.094100
      2 N            2.0220    -0.7390     0.2470 na         1 H4C      -0.059000
      3 S            1.9040     1.9730    -0.1070 ss         1 H4C      -0.002800
      4 CL          -1.3570    -0.4110    -2.1080 cl         1 H4C      -0.119400
      5 C1           0.2070     4.1920    -0.0300 c3         1 H4C      -0.027100
      6 N1           3.3420    -2.3160    -0.1890 na         1 H4C       0.035400
      7 C2           0.3650     2.7180     0.1430 cc         1 H4C       0.013600
      8 N2           2.6560    -2.7340     0.8810 n2         1 H4C      -0.427800
      9 C3          -0.5710     1.8010     0.5030 cd         1 H4C      -0.123000
     10 N3          -0.5130    -1.6970     1.6180 n2         1 H4C      -0.545900
     11 C4          -0.0690     0.4720     0.5840 cd         1 H4C      -0.136900
     12 C5           1.2590     0.4310     0.2650 cc         1 H4C      -0.088300
     13 C6           2.9840    -1.1240    -0.6090 cc         1 H4C       0.058100
     14 C7           3.5230    -0.3900    -1.7640 c3         1 H4C      -0.062800
     15 C8           1.8500    -1.7620     1.1520 cc         1 H4C       0.446800
     16 C9           0.8150    -1.6830     2.2080 c3         1 H4C       0.063500
     17 C10         -0.8870    -0.7070     0.9150 cf         1 H4C       0.560500
     18 C11         -2.2880    -0.7030     0.4260 ca         1 H4C      -0.160900
     19 C12         -3.3250    -0.8680     1.3410 ca         1 H4C      -0.076000
     20 C13         -4.6470    -0.8530     0.9280 ca         1 H4C      -0.121000
     21 C14         -4.9480    -0.6830    -0.4160 ca         1 H4C      -0.088000
     22 C15         -3.9310    -0.5350    -1.3470 ca         1 H4C      -0.118000
     23 C16         -2.6120    -0.5440    -0.9200 ca         1 H4C       0.051400
     24 H            0.9180     6.0770     0.7490 hc         1 H4C       0.049367
     25 HA           0.9130     4.7760     1.9400 hc         1 H4C       0.049367
     26 HB           2.1600     4.8350     0.6940 hc         1 H4C       0.049367
     27 H1          -0.8410     4.4320     0.1590 hc         1 H4C       0.073700
     28 H1A          0.4050     4.4610    -1.0700 hc         1 H4C       0.073700
     29 HN1          4.0550    -2.9070    -0.5980 hn         1 H4C       0.385700
     30 H3          -1.5980     2.0630     0.7150 ha         1 H4C       0.189000
     31 H7           4.1490     0.4390    -1.4350 hc         1 H4C       0.104367
     32 H7A          4.1290    -1.0550    -2.3730 hc         1 H4C       0.104367
     33 H7B          2.7140     0.0070    -2.3770 hc         1 H4C       0.104367
     34 H9           0.9790    -0.7790     2.8050 h1         1 H4C       0.108700
     35 H9A          0.9250    -2.5430     2.8640 h1         1 H4C       0.108700
     36 H12         -3.0830    -0.9930     2.3880 ha         1 H4C       0.150000
     37 H13         -5.4400    -0.9710     1.6550 ha         1 H4C       0.155000
     38 H14         -5.9780    -0.6690    -0.7480 ha         1 H4C       0.154000
     39 H15         -4.1590    -0.4200    -2.3970 ha         1 H4C       0.161000
@<TRIPOS>BOND
     1     1     5 1   
     2     1    24 1   
     3     1    25 1   
     4     1    26 1   
     5     2    12 1   
     6     2    13 2   
     7     2    15 1   
     8     3     7 1   
     9     3    12 1   
    10     4    23 1   
    11     5     7 1   
    12     5    27 1   
    13     5    28 1   
    14     6     8 1   
    15     6    13 1   
    16     6    29 1   
    17     7     9 2   
    18     8    15 2   
    19     9    11 1   
    20     9    30 1   
    21    10    16 1   
    22    10    17 2   
    23    11    12 2   
    24    11    17 1   
    25    13    14 1   
    26    14    31 1   
    27    14    32 1   
    28    14    33 1   
    29    15    16 1   
    30    16    34 1   
    31    16    35 1   
    32    17    18 1   
    33    18    19 ar  
    34    18    23 ar  
    35    19    20 ar  
    36    19    36 1   
    37    20    21 ar  
    38    20    37 1   
    39    21    22 ar  
    40    21    38 1   
    41    22    23 ar  
    42    22    39 1   
@<TRIPOS>SUBSTRUCTURE
     1 H4C         1 TEMP              0 ****  ****    0 ROOT
