@<TRIPOS>MOLECULE
H4E
   23    23     1     0     0
SMALL
abcg2


@<TRIPOS>ATOM
      1 C2          -1.6530    -1.4270     0.0250 ca         1 H4E       0.377000
      2 C3          -0.7390    -2.4970     0.0240 ca         1 H4E      -0.216000
      3 C4           0.6190    -2.2860     0.0210 ca         1 H4E       0.007000
      4 C5           1.1470    -0.9920     0.0170 ca         1 H4E      -0.205600
      5 C6           0.2620     0.0840     0.0200 ca         1 H4E       0.023000
      6 C7          -1.1020    -0.1320     0.0270 ca         1 H4E      -0.124900
      7 C12          4.3780     0.7620    -0.0210 c3         1 H4E       0.169600
      8 N1          -2.9850    -1.6700     0.0660 nv         1 H4E      -1.086000
      9 BR8         -2.2530     1.3700     0.0480 br         1 H4E      -0.105100
     10 C9           2.6110    -0.8150     0.0060 c          1 H4E       0.618700
     11 O10          3.4000    -1.7330     0.0040 o          1 H4E      -0.501000
     12 O11          2.9750     0.4590    -0.0030 os         1 H4E      -0.450100
     13 C13          4.5230     2.2650    -0.0290 c3         1 H4E      -0.098100
     14 H1          -1.1250    -3.5090     0.0220 ha         1 H4E       0.118000
     15 H2           1.2840    -3.1400     0.0170 ha         1 H4E       0.136000
     16 H3           0.6370     1.0980     0.0190 ha         1 H4E       0.143000
     17 H4           4.8600     0.3300     0.8590 h1         1 H4E       0.048700
     18 H5           4.8380     0.3220    -0.9080 h1         1 H4E       0.048700
     19 H6          -3.2900    -2.6080    -0.1360 hn         1 H4E       0.479000
     20 H7          -3.6360    -0.9590    -0.2220 hn         1 H4E       0.479000
     21 H8           4.0560     2.7080    -0.9090 hc         1 H4E       0.046367
     22 H9           4.0870     2.7160     0.8620 hc         1 H4E       0.046367
     23 H10          5.5820     2.5200    -0.0490 hc         1 H4E       0.046367
@<TRIPOS>BOND
     1     1     2 ar  
     2     1     6 ar  
     3     1     8 1   
     4     2     3 ar  
     5     2    14 1   
     6     3     4 ar  
     7     3    15 1   
     8     4     5 ar  
     9     4    10 1   
    10     5     6 ar  
    11     5    16 1   
    12     6     9 1   
    13     7    12 1   
    14     7    13 1   
    15     7    17 1   
    16     7    18 1   
    17     8    19 1   
    18     8    20 1   
    19    10    11 2   
    20    10    12 1   
    21    13    21 1   
    22    13    22 1   
    23    13    23 1   
@<TRIPOS>SUBSTRUCTURE
     1 H4E         1 TEMP              0 ****  ****    0 ROOT
