@<TRIPOS>MOLECULE
H4E
   23    23     1     0     0
SMALL
No Charge or Current Charge


@<TRIPOS>ATOM
      1 C2          -1.6590    -1.4500     0.0320 ca         1 H4E       0.377000
      2 C3          -0.7870    -2.5440     0.0300 ca         1 H4E      -0.216000
      3 C4           0.6040    -2.3430     0.0200 ca         1 H4E       0.007000
      4 C5           1.1370    -1.0370     0.0110 ca         1 H4E      -0.205600
      5 C6           0.2510     0.0640     0.0120 ca         1 H4E       0.023000
      6 C7          -1.1400    -0.1420     0.0220 ca         1 H4E      -0.124900
      7 C12          4.4180     0.7810    -0.0190 c3         1 H4E       0.169600
      8 N1          -3.0090    -1.6730     0.0410 nv         1 H4E      -1.086000
      9 Br8         -2.3010     1.3920     0.0210 br         1 H4E      -0.105100
     10 C9           2.6320    -0.8380    -0.0000 c          1 H4E       0.618700
     11 O10          3.4260    -1.7700    -0.0020 o          1 H4E      -0.501000
     12 O11          3.0120     0.4800    -0.0080 os         1 H4E      -0.450100
     13 C13          4.5600     2.3110    -0.0270 c3         1 H4E      -0.098100
     14 H1          -1.1810    -3.5560     0.0380 ha         1 H4E       0.118000
     15 H2           1.2660    -3.2090     0.0190 ha         1 H4E       0.136000
     16 H3           0.6290     1.0850     0.0050 ha         1 H4E       0.143000
     17 H4           4.9140     0.3710     0.8710 h1         1 H4E       0.048700
     18 H5           4.9020     0.3630    -0.9120 h1         1 H4E       0.048700
     19 H6          -3.3600    -2.6050    -0.1680 hn         1 H4E       0.479000
     20 H7          -3.6360    -0.8910    -0.1400 hn         1 H4E       0.479000
     21 H8           4.0830     2.7390    -0.9160 hc         1 H4E       0.046367
     22 H9           4.0950     2.7460     0.8660 hc         1 H4E       0.046367
     23 H10          5.6200     2.5930    -0.0350 hc         1 H4E       0.046367
@<TRIPOS>BOND
     1     1     2 ar  
     2     1     6 ar  
     3     1     8 1   
     4     2     3 ar  
     5     2    14 1   
     6     3     4 ar  
     7     3    15 1   
     8     4     5 ar  
     9     4    10 1   
    10     5     6 ar  
    11     5    16 1   
    12     6     9 1   
    13     7    12 1   
    14     7    13 1   
    15     7    17 1   
    16     7    18 1   
    17     8    19 1   
    18     8    20 1   
    19    10    11 2   
    20    10    12 1   
    21    13    21 1   
    22    13    22 1   
    23    13    23 1   
@<TRIPOS>SUBSTRUCTURE
     1 H4E         1 TEMP              0 ****  ****    0 ROOT
