@<TRIPOS>MOLECULE
H4G
   28    29     1     0     0
SMALL
bcc


@<TRIPOS>ATOM
      1 N1          -1.8260    -0.8160    -0.1260 ns         1 H4G      -0.471100
      2 C4          -3.2060     1.2120     0.2150 ca         1 H4G      -0.116000
      3 C5          -4.4960     1.7180     0.2780 ca         1 H4G      -0.218300
      4 C6          -5.5750     0.8720     0.0960 ca         1 H4G       0.370200
      5 C7          -4.2030    -0.9170    -0.2030 ca         1 H4G       0.349200
      6 C8           1.8820    -0.8470     0.0600 ca         1 H4G      -0.132300
      7 C10          3.9780    -0.5630     1.2550 ca         1 H4G      -0.187000
      8 C13          2.4130    -0.0640    -0.9540 ca         1 H4G       0.185900
      9 C1           0.4990    -1.4060    -0.0420 c3         1 H4G      -0.106100
     10 C2          -0.5730    -0.3360     0.0850 c          1 H4G       0.676100
     11 C3          -3.0450    -0.1490    -0.0320 ca         1 H4G      -0.043700
     12 N2          -5.4270    -0.4270    -0.1420 nb         1 H4G      -0.643000
     13 O1          -0.3230     0.8190     0.3620 o          1 H4G      -0.561100
     14 C9           2.6930    -1.0800     1.1640 ca         1 H4G      -0.064000
     15 C11          4.4470     0.2060     0.2090 ca         1 H4G       0.170900
     16 C12          3.6830     0.4740    -0.9120 ca         1 H4G      -0.215000
     17 F1           1.6590     0.1770    -2.0350 f          1 H4G      -0.134900
     18 F2           5.6860     0.7120     0.2710 f          1 H4G      -0.134900
     19 H1          -1.8950    -1.8010    -0.3380 hn         1 H4G       0.317500
     20 H2          -2.3610     1.8660     0.3520 ha         1 H4G       0.171000
     21 H3          -4.6560     2.7710     0.4670 ha         1 H4G       0.144000
     22 H4          -6.5900     1.2490     0.1420 h4         1 H4G       0.022100
     23 H5          -4.1120    -1.9820    -0.3970 h4         1 H4G       0.011100
     24 H6           4.5980    -0.7590     2.1190 ha         1 H4G       0.157000
     25 H7           0.3590    -1.9520    -0.9790 hc         1 H4G       0.071700
     26 H8           0.3410    -2.1390     0.7550 hc         1 H4G       0.071700
     27 H9           2.3110    -1.6860     1.9760 ha         1 H4G       0.137000
     28 H10          4.0640     1.0790    -1.7250 ha         1 H4G       0.170000
@<TRIPOS>BOND
     1     1    10 1   
     2     1    11 1   
     3     1    19 1   
     4     2     3 ar  
     5     2    11 ar  
     6     2    20 1   
     7     3     4 ar  
     8     3    21 1   
     9     4    12 ar  
    10     4    22 1   
    11     5    11 ar  
    12     5    12 ar  
    13     5    23 1   
    14     6     8 ar  
    15     6     9 1   
    16     6    14 ar  
    17     7    14 ar  
    18     7    15 ar  
    19     7    24 1   
    20     8    16 ar  
    21     8    17 1   
    22     9    10 1   
    23     9    25 1   
    24     9    26 1   
    25    10    13 2   
    26    14    27 1   
    27    15    16 ar  
    28    15    18 1   
    29    16    28 1   
@<TRIPOS>SUBSTRUCTURE
     1 H4G         1 TEMP              0 ****  ****    0 ROOT
