@<TRIPOS>MOLECULE
H4G
   28    29     1     0     0
SMALL
No Charge or Current Charge


@<TRIPOS>ATOM
      1 N1          -1.6080    -0.7680     0.1160 ns         1 H4G      -0.145000
      2 C4          -3.2980     0.9220     0.8620 ca         1 H4G      -0.098000
      3 C5          -4.4990     1.5900     0.5660 ca         1 H4G      -0.135000
      4 C6          -5.1750     1.2990    -0.6310 ca         1 H4G       0.304900
      5 C7          -3.5630    -0.2490    -1.2410 ca         1 H4G       0.283900
      6 C8           1.7690    -1.0200     0.3900 ca         1 H4G      -0.132300
      7 C10          3.9700    -0.0590     0.8250 ca         1 H4G      -0.169000
      8 C13          1.8910    -0.6370    -0.9650 ca         1 H4G       0.221000
      9 C1           0.5140    -1.7390     0.8960 c3         1 H4G      -0.106100
     10 C2          -0.6400    -0.7510     1.1140 c          1 H4G       0.609100
     11 C3          -2.8110    -0.0250    -0.0660 ca         1 H4G      -0.071000
     12 N2          -4.7200     0.3930    -1.5270 nb         1 H4G      -0.643000
     13 O1          -0.6720    -0.0110     2.0910 o          1 H4G      -0.561100
     14 C9           2.8190    -0.7240     1.2830 ca         1 H4G      -0.046000
     15 C11          4.0760     0.3120    -0.5230 ca         1 H4G       0.206000
     16 C12          3.0390     0.0260    -1.4200 ca         1 H4G      -0.197000
     17 F1           0.8960    -0.9030    -1.8410 f          1 H4G      -0.170000
     18 F2           5.1830     0.9510    -0.9590 f          1 H4G      -0.170000
     19 H1          -1.4190    -1.4290    -0.6280 hn         1 H4G       0.151000
     20 H2          -2.7800     1.1490     1.7890 ha         1 H4G       0.153000
     21 H3          -4.9080     2.3260     1.2530 ha         1 H4G       0.126000
     22 H4          -6.1070     1.8040    -0.8800 h4         1 H4G       0.022100
     23 H5          -3.2250    -0.9710    -1.9830 h4         1 H4G       0.011100
     24 H6           4.7790     0.1690     1.5130 ha         1 H4G       0.139000
     25 H7           0.2180    -2.5010     0.1650 hc         1 H4G       0.071700
     26 H8           0.7290    -2.2320     1.8510 hc         1 H4G       0.071700
     27 H9           2.7440    -1.0050     2.3320 ha         1 H4G       0.119000
     28 H10          3.1240     0.3160    -2.4630 ha         1 H4G       0.152000
@<TRIPOS>BOND
     1     1    10 1   
     2     1    11 1   
     3     1    19 1   
     4     2     3 ar  
     5     2    11 ar  
     6     2    20 1   
     7     3     4 ar  
     8     3    21 1   
     9     4    12 ar  
    10     4    22 1   
    11     5    11 ar  
    12     5    12 ar  
    13     5    23 1   
    14     6     8 ar  
    15     6     9 1   
    16     6    14 ar  
    17     7    14 ar  
    18     7    15 ar  
    19     7    24 1   
    20     8    16 ar  
    21     8    17 1   
    22     9    10 1   
    23     9    25 1   
    24     9    26 1   
    25    10    13 2   
    26    14    27 1   
    27    15    16 ar  
    28    15    18 1   
    29    16    28 1   
@<TRIPOS>SUBSTRUCTURE
     1 H4G         1 TEMP              0 ****  ****    0 ROOT
