@<TRIPOS>MOLECULE
H4H
   37    39     1     0     0
SMALL
No Charge or Current Charge


@<TRIPOS>ATOM
      1 C2           1.7230    -0.4780     0.0490 c          1 H4H       0.645100
      2 C7          -1.5050    -1.2960    -0.1040 ca         1 H4H      -0.260500
      3 C8          -2.1520    -1.2270    -1.3550 ca         1 H4H      -0.025000
      4 C11         -4.6950     1.4610    -0.7340 cg         1 H4H       0.313000
      5 C15         -1.9170    -0.4430     0.9430 ca         1 H4H       0.011000
      6 C16          2.9630    -0.0950    -0.8190 c5         1 H4H      -0.151700
      7 C17          2.8570     1.3650    -1.3770 c5         1 H4H      -0.064400
      8 C18          4.2150     2.0020    -0.9330 c5         1 H4H      -0.074700
      9 C19          4.1080     2.2660     0.6040 c5         1 H4H      -0.077400
     10 C21          4.3340    -0.0870    -0.0410 c5         1 H4H      -0.065700
     11 O1           1.2260     0.1580     0.9650 o          1 H4H      -0.547100
     12 N3           1.2090    -1.6490    -0.4110 ns         1 H4H      -0.598300
     13 S4          -0.1440    -2.4510     0.1510 sy         1 H4H       1.182300
     14 O5           0.0550    -2.6360     1.5920 o          1 H4H      -0.522500
     15 O6          -0.3100    -3.5930    -0.7540 o          1 H4H      -0.522500
     16 C9          -3.2040    -0.3150    -1.5520 ca         1 H4H      -0.089000
     17 C10         -3.6180     0.5360    -0.5070 ca         1 H4H       0.045000
     18 N12         -5.5710     2.2090    -0.9310 n1         1 H4H      -0.417000
     19 C13         -2.9680     0.4690     0.7440 ca         1 H4H       0.121000
     20 Cl1         -3.4420     1.5170     2.0860 cl         1 H4H      -0.154000
     21 C20          4.2700     0.8410     1.2180 c5         1 H4H      -0.082400
     22 C22          5.1810     0.7940    -0.9880 c5         1 H4H      -0.085400
     23 H1          -1.8450    -1.8730    -2.1760 ha         1 H4H       0.137000
     24 H2          -1.4230    -0.4740     1.9130 ha         1 H4H       0.168000
     25 H3           3.0540    -0.8040    -1.6510 hc         1 H4H       0.063700
     26 H4           2.7640     1.3570    -2.4690 hc         1 H4H       0.059200
     27 H5           1.9900     1.9190    -0.9960 hc         1 H4H       0.059200
     28 H6           4.5190     2.8760    -1.5220 hc         1 H4H       0.070700
     29 H7           4.9080     2.9320     0.9490 hc         1 H4H       0.050700
     30 H8           3.1600     2.7400     0.8880 hc         1 H4H       0.050700
     31 H9           4.7470    -1.0840     0.1560 hc         1 H4H       0.064700
     32 H10          1.6340    -2.1220    -1.1890 hn         1 H4H       0.348500
     33 H11         -3.6970    -0.2710    -2.5210 ha         1 H4H       0.135000
     34 H12          5.2070     0.7770     1.7840 hc         1 H4H       0.052700
     35 H13          3.4810     0.5820     1.9290 hc         1 H4H       0.052700
     36 H14          5.2940     0.3730    -1.9950 hc         1 H4H       0.053200
     37 H15          6.1820     1.0190    -0.5990 hc         1 H4H       0.053200
@<TRIPOS>BOND
     1     1     6 1   
     2     1    11 2   
     3     1    12 1   
     4     2     3 ar  
     5     2     5 ar  
     6     2    13 1   
     7     3    16 ar  
     8     3    23 1   
     9     4    17 1   
    10     4    18 3   
    11     5    19 ar  
    12     5    24 1   
    13     6     7 1   
    14     6    10 1   
    15     6    25 1   
    16     7     8 1   
    17     7    26 1   
    18     7    27 1   
    19     8     9 1   
    20     8    22 1   
    21     8    28 1   
    22     9    21 1   
    23     9    29 1   
    24     9    30 1   
    25    10    21 1   
    26    10    22 1   
    27    10    31 1   
    28    12    13 1   
    29    12    32 1   
    30    13    14 2   
    31    13    15 2   
    32    16    17 ar  
    33    16    33 1   
    34    17    19 ar  
    35    19    20 1   
    36    21    34 1   
    37    21    35 1   
    38    22    36 1   
    39    22    37 1   
@<TRIPOS>SUBSTRUCTURE
     1 H4H         1 TEMP              0 ****  ****    0 ROOT
