@<TRIPOS>MOLECULE
H4H
   37    39     1     0     0
SMALL
bcc


@<TRIPOS>ATOM
      1 C2           1.5460     0.0420    -0.1170 c          1 H4H       0.712100
      2 C7          -1.4630    -1.1500     0.1090 ca         1 H4H      -0.260500
      3 C8          -1.9690    -1.4120    -1.1560 ca         1 H4H      -0.043000
      4 C11         -4.8950     0.8570    -1.1540 cg         1 H4H       0.223800
      5 C15         -2.0580    -0.2500     0.9760 ca         1 H4H      -0.007000
      6 C16          2.7010     0.4400    -0.9920 c5         1 H4H      -0.151700
      7 C17          2.9870     1.9590    -1.0560 c5         1 H4H      -0.064400
      8 C18          4.4640     2.0530    -0.6520 c5         1 H4H      -0.074700
      9 C19          4.5740     1.7730     0.8540 c5         1 H4H      -0.077400
     10 C21          4.0510    -0.1540    -0.5100 c5         1 H4H      -0.065700
     11 O1           0.9410     0.7620     0.6420 o          1 H4H      -0.547100
     12 N3           1.2110    -1.2940    -0.2400 ns         1 H4H      -0.665300
     13 S4          -0.0070    -2.0230     0.6340 sy         1 H4H       1.323900
     14 O5           0.1900    -1.7880     2.0460 o          1 H4H      -0.593300
     15 O6          -0.0660    -3.3750     0.1150 o          1 H4H      -0.593300
     16 C9          -3.1030    -0.7410    -1.5690 ca         1 H4H      -0.107000
     17 C10         -3.7230     0.1710    -0.7160 ca         1 H4H       0.045000
     18 N12         -5.8310     1.4110    -1.5310 n1         1 H4H      -0.327800
     19 C13         -3.1990     0.4090     0.5550 ca         1 H4H       0.029400
     20 CL1         -3.9690     1.5280     1.6030 cl         1 H4H      -0.062400
     21 C20          4.3080     0.2470     0.9490 c5         1 H4H      -0.082400
     22 C22          5.0310     0.7610    -1.2500 c5         1 H4H      -0.085400
     23 H1          -1.4960    -2.1220    -1.8190 ha         1 H4H       0.155000
     24 H2          -1.6540    -0.0600     1.9590 ha         1 H4H       0.186000
     25 H3           2.4950     0.0530    -1.9950 hc         1 H4H       0.063700
     26 H4           2.8310     2.3260    -2.0710 hc         1 H4H       0.059200
     27 H5           2.3430     2.5400    -0.3970 hc         1 H4H       0.059200
     28 H6           4.9420     2.9810    -0.9660 hc         1 H4H       0.070700
     29 H7           5.5710     2.0190     1.2230 hc         1 H4H       0.050700
     30 H8           3.8600     2.3620     1.4320 hc         1 H4H       0.050700
     31 H9           4.1510    -1.2230    -0.7030 hc         1 H4H       0.064700
     32 H10          1.6580    -1.8770    -0.9390 hn         1 H4H       0.348500
     33 H11         -3.5150    -0.9220    -2.5510 ha         1 H4H       0.153000
     34 H12          5.1870    -0.2810     1.3210 hc         1 H4H       0.052700
     35 H13          3.4890    -0.0050     1.6260 hc         1 H4H       0.052700
     36 H14          4.9380     0.7060    -2.3370 hc         1 H4H       0.053200
     37 H15          6.0710     0.5720    -0.9760 hc         1 H4H       0.053200
@<TRIPOS>BOND
     1     1     6 1   
     2     1    11 2   
     3     1    12 1   
     4     2     3 ar  
     5     2     5 ar  
     6     2    13 1   
     7     3    16 ar  
     8     3    23 1   
     9     4    17 1   
    10     4    18 3   
    11     5    19 ar  
    12     5    24 1   
    13     6     7 1   
    14     6    10 1   
    15     6    25 1   
    16     7     8 1   
    17     7    26 1   
    18     7    27 1   
    19     8     9 1   
    20     8    22 1   
    21     8    28 1   
    22     9    21 1   
    23     9    29 1   
    24     9    30 1   
    25    10    21 1   
    26    10    22 1   
    27    10    31 1   
    28    12    13 1   
    29    12    32 1   
    30    13    14 2   
    31    13    15 2   
    32    16    17 ar  
    33    16    33 1   
    34    17    19 ar  
    35    19    20 1   
    36    21    34 1   
    37    21    35 1   
    38    22    36 1   
    39    22    37 1   
@<TRIPOS>SUBSTRUCTURE
     1 H4H         1 TEMP              0 ****  ****    0 ROOT
