@<TRIPOS>MOLECULE
H4I
   55    58     1     0     0
SMALL
No Charge or Current Charge


@<TRIPOS>ATOM
      1 FBI         27.0270     5.6960   -16.0780 f          1 H4I      -0.156000
      2 CBH         28.0670     5.2820   -16.8350 ca         1 H4I       0.286000
      3 CBG         28.9640     6.2390   -17.3270 ca         1 H4I      -0.222000
      4 CBF         30.0460     5.8380   -18.1170 ca         1 H4I       0.257000
      5 FBJ         30.9120     6.7610   -18.5880 f          1 H4I      -0.158000
      6 CBE         30.2380     4.4840   -18.4230 ca         1 H4I      -0.194000
      7 CBD         29.3450     3.5190   -17.9290 ca         1 H4I       0.042000
      8 CBC         28.2600     3.9200   -17.1220 ca         1 H4I      -0.371500
      9 SAZ         27.1300     2.6950   -16.4860 sy         1 H4I       1.157600
     10 OBA         25.7690     3.0280   -16.9070 o          1 H4I      -0.518500
     11 OBB         27.6890     1.3510   -16.6480 o          1 H4I      -0.518500
     12 NAY         27.0610     2.9460   -14.8280 nu         1 H4I      -0.867100
     13 CAC         28.0940     3.1690   -13.9230 ca         1 H4I       0.254000
     14 CAB         29.3600     2.5750   -14.0620 ca         1 H4I      -0.136000
     15 CAA         30.4090     2.8440   -13.1490 ca         1 H4I       0.297000
     16 CAD         27.8440     4.0200   -12.8410 ca         1 H4I      -0.146000
     17 CAE         28.8560     4.3000   -11.9180 ca         1 H4I      -0.084000
     18 CAF         30.1310     3.7290   -12.0720 ca         1 H4I      -0.095300
     19 CAG         31.2150     4.0950   -11.0630 c6         1 H4I      -0.028100
     20 CAH         32.5900     4.0760   -11.7400 c6         1 H4I      -0.098400
     21 CAI         32.8500     2.7080   -12.3930 c6         1 H4I       0.221800
     22 NAJ         31.7170     2.2700   -13.2640 nh         1 H4I      -0.772300
     23 SAK         32.2210     1.1960   -14.5420 s6         1 H4I       1.195100
     24 OAL         31.2010     0.1490   -14.6500 o          1 H4I      -0.518500
     25 OAM         33.6130     0.8140   -14.2810 o          1 H4I      -0.518500
     26 CAN         32.1790     2.2070   -16.0310 c3         1 H4I      -0.272100
     27 CAO         32.8050     3.5860   -15.8660 ca         1 H4I      -0.042300
     28 CAP         31.9980     4.6980   -15.5660 ca         1 H4I      -0.106500
     29 CAQ         32.5700     5.9690   -15.3980 ca         1 H4I      -0.060500
     30 CAR         33.9630     6.1500   -15.5320 ca         1 H4I      -0.197300
     31 CAU         34.5850     7.5360   -15.3320 c3         1 H4I       0.357300
     32 FAW         33.7720     8.5280   -15.7630 f          1 H4I      -0.112667
     33 FAX         35.7540     7.6810   -15.9970 f          1 H4I      -0.112667
     34 FAV         34.8410     7.7750   -14.0260 f          1 H4I      -0.112667
     35 CAS         34.7700     5.0290   -15.8270 ca         1 H4I      -0.060500
     36 CAT         34.1930     3.7590   -15.9960 ca         1 H4I      -0.106500
     37 H1          28.8170     7.2890   -17.0970 ha         1 H4I       0.158000
     38 H2          31.0810     4.1840   -19.0390 ha         1 H4I       0.146000
     39 H3          29.5020     2.4690   -18.1780 ha         1 H4I       0.147000
     40 H4          26.2120     3.4760   -14.6860 hn         1 H4I       0.497000
     41 H5          29.5020     1.8970   -14.8860 ha         1 H4I       0.171000
     42 H6          26.8660     4.4780   -12.7180 ha         1 H4I       0.121000
     43 H7          28.6520     4.9710   -11.0860 ha         1 H4I       0.120000
     44 H8          31.0290     5.0900   -10.6360 hc         1 H4I       0.056700
     45 H9          31.1960     3.3830   -10.2260 hc         1 H4I       0.056700
     46 H10         33.3800     4.3010   -11.0120 hc         1 H4I       0.059700
     47 H11         32.6340     4.8610   -12.5080 hc         1 H4I       0.059700
     48 H12         33.0200     1.9600   -11.6040 h1         1 H4I       0.075700
     49 H13         33.7870     2.8090   -12.9600 h1         1 H4I       0.075700
     50 H14         31.1280     2.2940   -16.3090 h1         1 H4I       0.121200
     51 H15         32.6980     1.6260   -16.7990 h1         1 H4I       0.121200
     52 H16         30.9240     4.5800   -15.4540 ha         1 H4I       0.131000
     53 H17         31.9250     6.8120   -15.1570 ha         1 H4I       0.133500
     54 H18         35.8490     5.1350   -15.9230 ha         1 H4I       0.133500
     55 H19         34.8300     2.9060   -16.2220 ha         1 H4I       0.131000
@<TRIPOS>BOND
     1     1     2 1   
     2     2     3 ar  
     3     2     8 ar  
     4     3     4 ar  
     5     3    37 1   
     6     4     5 1   
     7     4     6 ar  
     8     6     7 ar  
     9     6    38 1   
    10     7     8 ar  
    11     7    39 1   
    12     8     9 1   
    13     9    10 2   
    14     9    11 2   
    15     9    12 1   
    16    12    13 1   
    17    12    40 1   
    18    13    14 ar  
    19    13    16 ar  
    20    14    15 ar  
    21    14    41 1   
    22    15    18 ar  
    23    15    22 1   
    24    16    17 ar  
    25    16    42 1   
    26    17    18 ar  
    27    17    43 1   
    28    18    19 1   
    29    19    20 1   
    30    19    44 1   
    31    19    45 1   
    32    20    21 1   
    33    20    46 1   
    34    20    47 1   
    35    21    22 1   
    36    21    48 1   
    37    21    49 1   
    38    22    23 1   
    39    23    24 2   
    40    23    25 2   
    41    23    26 1   
    42    26    27 1   
    43    26    50 1   
    44    26    51 1   
    45    27    28 ar  
    46    27    36 ar  
    47    28    29 ar  
    48    28    52 1   
    49    29    30 ar  
    50    29    53 1   
    51    30    31 1   
    52    30    35 ar  
    53    31    32 1   
    54    31    33 1   
    55    31    34 1   
    56    35    36 ar  
    57    35    54 1   
    58    36    55 1   
@<TRIPOS>SUBSTRUCTURE
     1 H4I         1 TEMP              0 ****  ****    0 ROOT
