@<TRIPOS>MOLECULE
H4I
   55    58     1     0     0
SMALL
bcc


@<TRIPOS>ATOM
      1 FBI         25.5070     4.8000   -16.5610 f          1 H4I      -0.120900
      2 CBH         26.6950     5.1370   -17.0550 ca         1 H4I       0.250900
      3 CBG         26.8980     6.4420   -17.4480 ca         1 H4I      -0.240000
      4 CBF         28.1480     6.7750   -17.9360 ca         1 H4I       0.221900
      5 FBJ         28.3590     8.0330   -18.3190 f          1 H4I      -0.122900
      6 CBE         29.1780     5.8590   -18.0370 ca         1 H4I      -0.212000
      7 CBD         28.9420     4.5550   -17.6370 ca         1 H4I       0.024000
      8 CBC         27.6980     4.1790   -17.1440 ca         1 H4I      -0.371500
      9 SAZ         27.4220     2.5110   -16.6030 sy         1 H4I       1.299200
     10 OBA         26.1370     2.0500   -17.0850 o          1 H4I      -0.589300
     11 OBB         28.6270     1.7650   -16.9130 o          1 H4I      -0.589300
     12 NAY         27.2960     2.5910   -14.9490 nu         1 H4I      -0.673500
     13 CAC         28.3920     3.1180   -14.2140 ca         1 H4I       0.115600
     14 CAB         29.5000     2.3150   -13.9980 ca         1 H4I      -0.154000
     15 CAA         30.6020     2.8080   -13.3000 ca         1 H4I       0.158600
     16 CAD         28.3450     4.4020   -13.6880 ca         1 H4I      -0.164000
     17 CAE         29.4190     4.8610   -12.9470 ca         1 H4I      -0.102000
     18 CAF         30.5650     4.0960   -12.7500 ca         1 H4I      -0.095300
     19 CAG         31.6980     4.6680   -11.9390 c6         1 H4I      -0.028100
     20 CAH         32.9690     3.8330   -12.0030 c6         1 H4I      -0.098400
     21 CAI         32.6150     2.3610   -11.9740 c6         1 H4I       0.221800
     22 NAJ         31.7570     2.0180   -13.1110 nh         1 H4I      -0.633900
     23 SAK         32.3210     1.0320   -14.3290 s6         1 H4I       1.225900
     24 OAL         31.3950    -0.0660   -14.5630 o          1 H4I      -0.589300
     25 OAM         33.6910     0.6900   -13.9870 o          1 H4I      -0.589300
     26 CAN         32.3230     2.0560   -15.8230 c3         1 H4I      -0.161300
     27 CAO         33.0860     3.3250   -15.6280 ca         1 H4I      -0.042300
     28 CAP         32.4140     4.5350   -15.5080 ca         1 H4I      -0.124500
     29 CAQ         33.1090     5.7110   -15.2650 ca         1 H4I      -0.078500
     30 CAR         34.4910     5.6810   -15.1410 ca         1 H4I      -0.197300
     31 CAU         35.2700     6.9110   -14.7970 c3         1 H4I       0.721200
     32 FAW         34.5430     8.0270   -14.8890 f          1 H4I      -0.233967
     33 FAX         36.3390     7.0690   -15.5890 f          1 H4I      -0.233967
     34 FAV         35.7380     6.8520   -13.5410 f          1 H4I      -0.233967
     35 CAS         35.1760     4.4790   -15.2950 ca         1 H4I      -0.078500
     36 CAT         34.4770     3.3120   -15.5400 ca         1 H4I      -0.124500
     37 H1          26.1050     7.1750   -17.3700 ha         1 H4I       0.176000
     38 H2          30.1450     6.1530   -18.4200 ha         1 H4I       0.164000
     39 H3          29.7380     3.8280   -17.7120 ha         1 H4I       0.165000
     40 H4          26.3850     2.9330   -14.6580 hn         1 H4I       0.441800
     41 H5          29.4850     1.2990   -14.3620 ha         1 H4I       0.189000
     42 H6          27.4780     5.0320   -13.8450 ha         1 H4I       0.139000
     43 H7          29.3830     5.8580   -12.5240 ha         1 H4I       0.138000
     44 H8          31.8950     5.6910   -12.2670 hc         1 H4I       0.056700
     45 H9          31.3660     4.7440   -10.8990 hc         1 H4I       0.056700
     46 H10         33.6170     4.0690   -11.1580 hc         1 H4I       0.059700
     47 H11         33.5350     4.0510   -12.9090 hc         1 H4I       0.059700
     48 H12         32.0680     2.1120   -11.0620 h1         1 H4I       0.075700
     49 H13         33.5030     1.7380   -11.9930 h1         1 H4I       0.075700
     50 H14         31.2850     2.2320   -16.1080 h1         1 H4I       0.121200
     51 H15         32.7740     1.4060   -16.5770 h1         1 H4I       0.121200
     52 H16         31.3350     4.5700   -15.5980 ha         1 H4I       0.149000
     53 H17         32.5560     6.6350   -15.1650 ha         1 H4I       0.151500
     54 H18         36.2550     4.4390   -15.2200 ha         1 H4I       0.151500
     55 H19         35.0210     2.3860   -15.6640 ha         1 H4I       0.149000
@<TRIPOS>BOND
     1     1     2 1   
     2     2     3 ar  
     3     2     8 ar  
     4     3     4 ar  
     5     3    37 1   
     6     4     5 1   
     7     4     6 ar  
     8     6     7 ar  
     9     6    38 1   
    10     7     8 ar  
    11     7    39 1   
    12     8     9 1   
    13     9    10 2   
    14     9    11 2   
    15     9    12 1   
    16    12    13 1   
    17    12    40 1   
    18    13    14 ar  
    19    13    16 ar  
    20    14    15 ar  
    21    14    41 1   
    22    15    18 ar  
    23    15    22 1   
    24    16    17 ar  
    25    16    42 1   
    26    17    18 ar  
    27    17    43 1   
    28    18    19 1   
    29    19    20 1   
    30    19    44 1   
    31    19    45 1   
    32    20    21 1   
    33    20    46 1   
    34    20    47 1   
    35    21    22 1   
    36    21    48 1   
    37    21    49 1   
    38    22    23 1   
    39    23    24 2   
    40    23    25 2   
    41    23    26 1   
    42    26    27 1   
    43    26    50 1   
    44    26    51 1   
    45    27    28 ar  
    46    27    36 ar  
    47    28    29 ar  
    48    28    52 1   
    49    29    30 ar  
    50    29    53 1   
    51    30    31 1   
    52    30    35 ar  
    53    31    32 1   
    54    31    33 1   
    55    31    34 1   
    56    35    36 ar  
    57    35    54 1   
    58    36    55 1   
@<TRIPOS>SUBSTRUCTURE
     1 H4I         1 TEMP              0 ****  ****    0 ROOT
