@<TRIPOS>MOLECULE
H4K
   32    34     1     0     0
SMALL
No Charge or Current Charge


@<TRIPOS>ATOM
      1 N4          -8.2580     0.2700    -0.5670 n1         1 H4K      -0.431000
      2 C6          -7.1190     0.0680    -0.3940 cg         1 H4K       0.231000
      3 C4          -5.7130    -0.1720    -0.1910 ca         1 H4K       0.319000
      4 N2          -5.3480    -1.0830     0.7620 nb         1 H4K      -0.573000
      5 C3          -4.0050    -1.2650     0.9070 ca         1 H4K       0.235900
      6 C5          -4.7540     0.5240    -0.9760 ca         1 H4K       0.382900
      7 N3          -3.4090     0.3380    -0.8300 nb         1 H4K      -0.659000
      8 C2          -3.0470    -0.5470     0.1350 ca         1 H4K       0.477900
      9 N1          -1.6670    -0.7920     0.2490 ns         1 H4K      -0.337900
     10 C1          -0.6000     0.0610     0.0900 c          1 H4K       0.672100
     11 O           -0.7030     1.2570    -0.1440 o          1 H4K      -0.508100
     12 N5           0.5940    -0.6060     0.2290 ns         1 H4K      -0.347900
     13 C7           1.9100    -0.1260     0.2000 ca         1 H4K       0.479900
     14 N6           2.0980     1.1020     0.7220 nb         1 H4K      -0.665000
     15 C15          3.3650     1.5770     0.7660 ca         1 H4K       0.397900
     16 C14          4.4790     0.8410     0.3150 ca         1 H4K      -0.118000
     17 C9           4.2710    -0.4520    -0.2010 ca         1 H4K       0.014000
     18 C8           2.9580    -0.9440    -0.2470 ca         1 H4K      -0.196000
     19 C13          5.7830     1.3700     0.3790 ca         1 H4K      -0.071000
     20 C12          6.8720     0.6030    -0.0740 ca         1 H4K      -0.117000
     21 C11          6.6610    -0.6900    -0.5870 ca         1 H4K      -0.082000
     22 C10          5.3600    -1.2190    -0.6510 ca         1 H4K      -0.113000
     23 H2          -3.6880    -1.9950     1.6500 h4         1 H4K       0.032100
     24 H3          -5.0660     1.2390    -1.7360 h4         1 H4K       0.047100
     25 H1          -1.4310    -1.7420     0.4990 hn         1 H4K       0.157000
     26 H4           0.5210    -1.6050     0.3610 hn         1 H4K       0.153000
     27 H10          3.4900     2.5770     1.1800 h4         1 H4K       0.027100
     28 H5           2.7480    -1.9400    -0.6280 ha         1 H4K       0.122000
     29 H9           5.9540     2.3680     0.7770 ha         1 H4K       0.119000
     30 H8           7.8790     1.0090    -0.0250 ha         1 H4K       0.119000
     31 H7           7.5060    -1.2810    -0.9350 ha         1 H4K       0.116000
     32 H6           5.2010    -2.2190    -1.0480 ha         1 H4K       0.118000
@<TRIPOS>BOND
     1     1     2 3   
     2     2     3 1   
     3     3     4 ar  
     4     3     6 ar  
     5     4     5 ar  
     6     5     8 ar  
     7     5    23 1   
     8     6     7 ar  
     9     6    24 1   
    10     7     8 ar  
    11     8     9 1   
    12     9    10 1   
    13     9    25 1   
    14    10    11 2   
    15    10    12 1   
    16    12    13 1   
    17    12    26 1   
    18    13    14 ar  
    19    13    18 ar  
    20    14    15 ar  
    21    15    16 ar  
    22    15    27 1   
    23    16    17 ar  
    24    16    19 ar  
    25    17    18 ar  
    26    17    22 ar  
    27    18    28 1   
    28    19    20 ar  
    29    19    29 1   
    30    20    21 ar  
    31    20    30 1   
    32    21    22 ar  
    33    21    31 1   
    34    22    32 1   
@<TRIPOS>SUBSTRUCTURE
     1 H4K         1 TEMP              0 ****  ****    0 ROOT
