@<TRIPOS>MOLECULE
H4K
   32    34     1     0     0
SMALL
bcc


@<TRIPOS>ATOM
      1 N4          -8.0590     0.2440    -0.8490 n1         1 H4K      -0.341800
      2 C6          -6.9470     0.0650    -0.6070 cg         1 H4K       0.141800
      3 C4          -5.5630    -0.1430    -0.3200 ca         1 H4K       0.319000
      4 N2          -5.2420    -1.1770     0.4660 nb         1 H4K      -0.573000
      5 C3          -3.9770    -1.3590     0.7230 ca         1 H4K       0.235900
      6 C5          -4.5940     0.6980    -0.8410 ca         1 H4K       0.382900
      7 N3          -3.3070     0.5160    -0.5850 nb         1 H4K      -0.659000
      8 C2          -2.9820    -0.5000     0.1930 ca         1 H4K       0.477900
      9 N1          -1.6800    -0.7770     0.5000 ns         1 H4K      -0.571400
     10 C1          -0.5530    -0.0220     0.1920 c          1 H4K       0.806100
     11 O           -0.5900     1.1030    -0.2400 o          1 H4K      -0.508100
     12 N5           0.5910    -0.7270     0.4540 ns         1 H4K      -0.581400
     13 C7           1.8830    -0.2060     0.3480 ca         1 H4K       0.545200
     14 N6           2.0720     1.0500     0.7930 nb         1 H4K      -0.665000
     15 C15          3.2760     1.5490     0.7390 ca         1 H4K       0.463200
     16 C14          4.4060     0.8450     0.2690 ca         1 H4K      -0.183300
     17 C9           4.2050    -0.4830    -0.1760 ca         1 H4K       0.014000
     18 C8           2.8940    -0.9970    -0.1380 ca         1 H4K      -0.279300
     19 C13          5.6990     1.4120     0.2380 ca         1 H4K      -0.089000
     20 C12          6.7560     0.6770    -0.2220 ca         1 H4K      -0.135000
     21 C11          6.5580    -0.6500    -0.6670 ca         1 H4K      -0.100000
     22 C10          5.3150    -1.2210    -0.6470 ca         1 H4K      -0.131000
     23 H2          -3.7050    -2.1960     1.3570 h4         1 H4K       0.032100
     24 H3          -4.8610     1.5310    -1.4790 h4         1 H4K       0.047100
     25 H1          -1.5370    -1.6170     1.0420 hn         1 H4K       0.323500
     26 H4           0.5250    -1.7320     0.5190 hn         1 H4K       0.319500
     27 H10          3.4010     2.5670     1.0970 h4         1 H4K       0.027100
     28 H5           2.6920    -2.0010    -0.4910 ha         1 H4K       0.140000
     29 H9           5.8410     2.4290     0.5820 ha         1 H4K       0.137000
     30 H8           7.7490     1.1050    -0.2470 ha         1 H4K       0.137000
     31 H7           7.4060    -1.2190    -1.0260 ha         1 H4K       0.134000
     32 H6           5.1700    -2.2380    -0.9890 ha         1 H4K       0.136000
@<TRIPOS>BOND
     1     1     2 3   
     2     2     3 1   
     3     3     4 ar  
     4     3     6 ar  
     5     4     5 ar  
     6     5     8 ar  
     7     5    23 1   
     8     6     7 ar  
     9     6    24 1   
    10     7     8 ar  
    11     8     9 1   
    12     9    10 1   
    13     9    25 1   
    14    10    11 2   
    15    10    12 1   
    16    12    13 1   
    17    12    26 1   
    18    13    14 ar  
    19    13    18 ar  
    20    14    15 ar  
    21    15    16 ar  
    22    15    27 1   
    23    16    17 ar  
    24    16    19 ar  
    25    17    18 ar  
    26    17    22 ar  
    27    18    28 1   
    28    19    20 ar  
    29    19    29 1   
    30    20    21 ar  
    31    20    30 1   
    32    21    22 ar  
    33    21    31 1   
    34    22    32 1   
@<TRIPOS>SUBSTRUCTURE
     1 H4K         1 TEMP              0 ****  ****    0 ROOT
