@<TRIPOS>MOLECULE
H4L
   47    49     1     0     0
SMALL
No Charge or Current Charge


@<TRIPOS>ATOM
      1 C16         16.3820    -2.7950    31.2070 ca         1 H4L      -0.113500
      2 C17         17.3850    -1.8200    31.3680 ca         1 H4L      -0.055300
      3 C13         14.0190    -1.0490    28.8760 cg         1 H4L      -0.012000
      4 C12         13.0630    -0.8260    28.1520 ch         1 H4L      -0.248000
      5 C11         11.8680     0.4430    26.3430 cc         1 H4L      -0.209000
      6 C10         12.0030    -0.5480    27.2510 cd         1 H4L       0.320000
      7 C25         19.5120    -1.9230    34.6800 c3         1 H4L       0.162600
      8 C24         18.3070    -1.7170    33.7380 c3         1 H4L      -0.073400
      9 C23         18.5850    -2.0940    32.2640 c3         1 H4L      -0.034100
     10 C15         15.2700    -2.5410    30.3840 ca         1 H4L      -0.074000
     11 C18         17.2630    -0.5860    30.6990 ca         1 H4L      -0.113500
     12 C19         16.1520    -0.3310    29.8760 ca         1 H4L      -0.074000
     13 C14         15.1530    -1.3090    29.7160 ca         1 H4L      -0.005000
     14 O9          10.9030    -1.3650    27.2160 os         1 H4L      -0.051700
     15 N8           9.9970    -0.8600    26.2100 nd         1 H4L      -0.349300
     16 C7          10.6240     0.2040    25.7330 cc         1 H4L       0.238300
     17 C6          10.0760     1.0730    24.6320 c3         1 H4L       0.038300
     18 N1          10.9990     1.2380    23.4910 na         1 H4L      -0.168500
     19 C5          11.3880     0.2680    22.5800 cc         1 H4L       0.357800
     20 C20         10.9290    -1.1900    22.5850 c3         1 H4L       0.159000
     21 O22         10.6820    -1.6650    21.2490 oh         1 H4L      -0.636000
     22 C21         11.9600    -2.1240    23.2500 c3         1 H4L      -0.084100
     23 N4          12.2150     0.7810    21.6780 nd         1 H4L      -0.648000
     24 C3          12.3740     2.1070    22.0210 cd         1 H4L       0.234900
     25 C2          11.6350     2.4080    23.1350 cc         1 H4L      -0.232000
     26 H1          16.4620    -3.7500    31.7210 ha         1 H4L       0.119000
     27 H3          20.6010    -3.3840    35.3960 ho         1 H4L       0.443000
     28 H4          20.3710    -1.3510    34.3030 h1         1 H4L       0.018200
     29 H5          19.2580    -1.5260    35.6720 h1         1 H4L       0.018200
     30 H6          18.0100    -0.6620    33.7810 hc         1 H4L       0.050700
     31 H7          17.4530    -2.2980    34.1090 hc         1 H4L       0.050700
     32 H8          18.8600    -3.1540    32.2040 hc         1 H4L       0.057200
     33 H9          19.4580    -1.5330    31.9080 hc         1 H4L       0.057200
     34 H10         14.5020    -3.3030    30.2670 ha         1 H4L       0.123000
     35 H11         18.0290     0.1770    30.8180 ha         1 H4L       0.119000
     36 H12         16.0690     0.6260    29.3640 ha         1 H4L       0.123000
     37 H13          9.8480     2.0620    25.0490 h1         1 H4L       0.081200
     38 H14          9.1340     0.6470    24.2660 h1         1 H4L       0.081200
     39 H15          9.9990    -1.2580    23.1640 h1         1 H4L       0.032700
     40 H16         11.3120    -1.1730    20.6740 ho         1 H4L       0.446000
     41 H17         12.1620    -1.8080    24.2800 hc         1 H4L       0.050700
     42 H18         11.5860    -3.1540    23.2780 hc         1 H4L       0.050700
     43 H19         12.9090    -2.1140    22.7000 hc         1 H4L       0.050700
     44 H20         13.0090     2.7710    21.4470 h4         1 H4L       0.040100
     45 H21         11.5220     3.3400    23.6740 h4         1 H4L       0.156000
     46 H2          12.5610     1.2450    26.1180 ha         1 H4L       0.165000
     47 O26         19.8390    -3.3130    34.7780 oh         1 H4L      -0.663000
@<TRIPOS>BOND
     1     1     2 ar  
     2     1    10 ar  
     3     1    26 1   
     4     2     9 1   
     5     2    11 ar  
     6     3     4 3   
     7     3    13 1   
     8     4     6 1   
     9     5     6 2   
    10     5    16 1   
    11     5    46 1   
    12     6    14 1   
    13     7     8 1   
    14     7    28 1   
    15     7    29 1   
    16     7    47 1   
    17     8     9 1   
    18     8    30 1   
    19     8    31 1   
    20     9    32 1   
    21     9    33 1   
    22    10    13 ar  
    23    10    34 1   
    24    11    12 ar  
    25    11    35 1   
    26    12    13 ar  
    27    12    36 1   
    28    14    15 1   
    29    15    16 2   
    30    16    17 1   
    31    17    18 1   
    32    17    37 1   
    33    17    38 1   
    34    18    19 1   
    35    18    25 1   
    36    19    20 1   
    37    19    23 2   
    38    20    21 1   
    39    20    22 1   
    40    20    39 1   
    41    21    40 1   
    42    22    41 1   
    43    22    42 1   
    44    22    43 1   
    45    23    24 1   
    46    24    25 2   
    47    24    44 1   
    48    25    45 1   
    49    27    47 1   
@<TRIPOS>SUBSTRUCTURE
     1 H4L         1 TEMP              0 ****  ****    0 ROOT
