@<TRIPOS>MOLECULE
H4L
   47    49     1     0     0
SMALL
abcg2


@<TRIPOS>ATOM
      1 C16         16.4740    -2.8050    31.1920 ca         1 H4L      -0.113500
      2 C17         17.4670    -1.8550    31.4270 ca         1 H4L      -0.055300
      3 C13         14.2720    -1.0320    28.7900 cg         1 H4L      -0.012000
      4 C12         13.3690    -0.7890    28.0260 ch         1 H4L      -0.248000
      5 C11         12.1290     0.5360    26.2630 cc         1 H4L      -0.209000
      6 C10         12.3230    -0.4830    27.1400 cd         1 H4L       0.320000
      7 C25         19.3280    -1.9070    34.8170 c3         1 H4L       0.162600
      8 C24         18.2070    -1.7050    33.8170 c3         1 H4L      -0.073400
      9 C23         18.5810    -2.1290    32.3940 c3         1 H4L      -0.034100
     10 C15         15.4220    -2.5440    30.3310 ca         1 H4L      -0.074000
     11 C18         17.3750    -0.6260    30.7760 ca         1 H4L      -0.113500
     12 C19         16.3310    -0.3490    29.9120 ca         1 H4L      -0.074000
     13 C14         15.3410    -1.3090    29.6810 ca         1 H4L      -0.005000
     14 O9          11.2710    -1.3170    27.0940 os         1 H4L      -0.051700
     15 N8          10.3750    -0.8610    26.1850 nd         1 H4L      -0.349300
     16 C7          10.8710     0.2370    25.6920 cc         1 H4L       0.238300
     17 C6          10.1340     1.0010    24.6400 c3         1 H4L       0.038300
     18 N1          10.9500     1.1900    23.4600 na         1 H4L      -0.168500
     19 C5          11.2900     0.2550    22.5360 cc         1 H4L       0.357800
     20 C20         10.8330    -1.1770    22.5730 c3         1 H4L       0.159000
     21 O22         10.4210    -1.6090    21.2970 oh         1 H4L      -0.636000
     22 C21         11.9600    -2.0930    23.0240 c3         1 H4L      -0.084100
     23 N4          12.0780     0.7630    21.6220 nd         1 H4L      -0.648000
     24 C3          12.2630     2.0700    21.9670 cd         1 H4L       0.234900
     25 C2          11.5760     2.3560    23.1090 cc         1 H4L      -0.232000
     26 H1          16.5260    -3.7690    31.6840 ha         1 H4L       0.119000
     27 H3          20.3960    -3.3860    35.4780 ho         1 H4L       0.443000
     28 H4          20.2010    -1.3190    34.5030 h1         1 H4L       0.018200
     29 H5          19.0120    -1.5090    35.7910 h1         1 H4L       0.018200
     30 H6          17.9410    -0.6440    33.8220 hc         1 H4L       0.050700
     31 H7          17.3160    -2.2480    34.1450 hc         1 H4L       0.050700
     32 H8          18.8320    -3.1910    32.3790 hc         1 H4L       0.057200
     33 H9          19.4780    -1.5860    32.0830 hc         1 H4L       0.057200
     34 H10         14.6640    -3.2950    30.1560 ha         1 H4L       0.123000
     35 H11         18.1370     0.1260    30.9440 ha         1 H4L       0.119000
     36 H12         16.2800     0.6090    29.4100 ha         1 H4L       0.123000
     37 H13          9.8620     1.9850    25.0200 h1         1 H4L       0.081200
     38 H14          9.2080     0.4880    24.3830 h1         1 H4L       0.081200
     39 H15         10.0100    -1.2680    23.2940 h1         1 H4L       0.032700
     40 H16          9.6940    -1.0520    21.0020 ho         1 H4L       0.446000
     41 H17         12.3250    -1.8010    24.0080 hc         1 H4L       0.050700
     42 H18         11.6140    -3.1250    23.0880 hc         1 H4L       0.050700
     43 H19         12.7970    -2.0460    22.3270 hc         1 H4L       0.050700
     44 H20         12.8750     2.7360    21.3790 h4         1 H4L       0.040100
     45 H21         11.4680     3.2590    23.6870 h4         1 H4L       0.156000
     46 H2          12.7840     1.3660    26.0600 ha         1 H4L       0.165000
     47 O26         19.6360    -3.2820    34.8990 oh         1 H4L      -0.663000
@<TRIPOS>BOND
     1     1     2 ar  
     2     1    10 ar  
     3     1    26 1   
     4     2     9 1   
     5     2    11 ar  
     6     3     4 3   
     7     3    13 1   
     8     4     6 1   
     9     5     6 2   
    10     5    16 1   
    11     5    46 1   
    12     6    14 1   
    13     7     8 1   
    14     7    28 1   
    15     7    29 1   
    16     7    47 1   
    17     8     9 1   
    18     8    30 1   
    19     8    31 1   
    20     9    32 1   
    21     9    33 1   
    22    10    13 ar  
    23    10    34 1   
    24    11    12 ar  
    25    11    35 1   
    26    12    13 ar  
    27    12    36 1   
    28    14    15 1   
    29    15    16 2   
    30    16    17 1   
    31    17    18 1   
    32    17    37 1   
    33    17    38 1   
    34    18    19 1   
    35    18    25 1   
    36    19    20 1   
    37    19    23 2   
    38    20    21 1   
    39    20    22 1   
    40    20    39 1   
    41    21    40 1   
    42    22    41 1   
    43    22    42 1   
    44    22    43 1   
    45    23    24 1   
    46    24    25 2   
    47    24    44 1   
    48    25    45 1   
    49    27    47 1   
@<TRIPOS>SUBSTRUCTURE
     1 H4L         1 TEMP              0 ****  ****    0 ROOT
