@<TRIPOS>MOLECULE
H4N
   16    17     1     0     0
SMALL
bcc


@<TRIPOS>ATOM
      1 C1           0.5970    -0.1580     0.0110 ca         1 H4N      -0.045900
      2 C2           0.1350    -1.4830     0.0020 ca         1 H4N      -0.089000
      3 C3          -1.2200    -1.7450    -0.0000 ca         1 H4N      -0.143000
      4 C4          -2.0950    -0.6610     0.0080 ca         1 H4N      -0.043200
      5 C5          -3.8700     0.6820     0.0180 cc         1 H4N      -0.112100
      6 C6          -2.7870     1.5140     0.0230 cd         1 H4N      -0.185200
      7 C7          -1.6320     0.6740     0.0170 ca         1 H4N      -0.102800
      8 C8          -0.2550     0.9250     0.0180 ca         1 H4N      -0.047000
      9 N1          -3.4570    -0.6180     0.0090 na         1 H4N      -0.169400
     10 BR1          2.4690     0.1420     0.0120 br         1 H4N      -0.112100
     11 H1           0.8360    -2.3070    -0.0040 ha         1 H4N       0.145000
     12 H2          -1.5810    -2.7660    -0.0060 ha         1 H4N       0.135000
     13 H3          -4.9210     0.9210     0.0210 h4         1 H4N       0.163000
     14 H4          -2.8100     2.5910     0.0300 ha         1 H4N       0.158000
     15 H5           0.1190     1.9420     0.0250 ha         1 H4N       0.149000
     16 H6          -4.0700    -1.4160     0.0030 hn         1 H4N       0.300700
@<TRIPOS>BOND
     1     1     2 ar  
     2     1     8 ar  
     3     1    10 1   
     4     2     3 ar  
     5     2    11 1   
     6     3     4 ar  
     7     3    12 1   
     8     4     7 ar  
     9     4     9 1   
    10     5     6 2   
    11     5     9 1   
    12     5    13 1   
    13     6     7 1   
    14     6    14 1   
    15     7     8 ar  
    16     8    15 1   
    17     9    16 1   
@<TRIPOS>SUBSTRUCTURE
     1 H4N         1 TEMP              0 ****  ****    0 ROOT
