@<TRIPOS>MOLECULE
H4N
   16    17     1     0     0
SMALL
No Charge or Current Charge


@<TRIPOS>ATOM
      1 C1           0.6460    -0.1580     0.0110 ca         1 H4N      -0.045900
      2 C2           0.1630    -1.4910     0.0020 ca         1 H4N      -0.071000
      3 C3          -1.2270    -1.7470     0.0000 ca         1 H4N      -0.125000
      4 C4          -2.0940    -0.6460     0.0080 ca         1 H4N      -0.043200
      5 C5          -3.9450     0.7120     0.0180 cc         1 H4N      -0.162100
      6 C6          -2.7870     1.4790     0.0230 cd         1 H4N      -0.235200
      7 C7          -1.6200     0.6350     0.0170 ca         1 H4N      -0.102800
      8 C8          -0.2520     0.9320     0.0180 ca         1 H4N      -0.029000
      9 N1          -3.4800    -0.6230     0.0090 na         1 H4N      -0.219700
     10 Br1          2.5310     0.1670     0.0120 br         1 H4N      -0.112100
     11 H1           0.8650    -2.3220    -0.0040 ha         1 H4N       0.127000
     12 H2          -1.6080    -2.7650    -0.0060 ha         1 H4N       0.117000
     13 H3          -4.9970     0.9860     0.0200 h4         1 H4N       0.213000
     14 H4          -2.7710     2.5670     0.0300 ha         1 H4N       0.208000
     15 H5           0.1040     1.9590     0.0250 ha         1 H4N       0.131000
     16 H6          -4.0710    -1.4490     0.0040 hn         1 H4N       0.351000
@<TRIPOS>BOND
     1     1     2 ar  
     2     1     8 ar  
     3     1    10 1   
     4     2     3 ar  
     5     2    11 1   
     6     3     4 ar  
     7     3    12 1   
     8     4     7 ar  
     9     4     9 1   
    10     5     6 2   
    11     5     9 1   
    12     5    13 1   
    13     6     7 1   
    14     6    14 1   
    15     7     8 ar  
    16     8    15 1   
    17     9    16 1   
@<TRIPOS>SUBSTRUCTURE
     1 H4N         1 TEMP              0 ****  ****    0 ROOT
