@<TRIPOS>MOLECULE
H4O
   47    49     1     0     0
SMALL
No Charge or Current Charge


@<TRIPOS>ATOM
      1 C15         15.7270    -2.0160    29.9560 ca         1 H4O       0.065000
      2 N2          12.4040     1.3830    22.1950 nc         1 H4O      -0.649000
      3 C14         15.5960    -0.7470    29.3670 ca         1 H4O      -0.099000
      4 C16         14.7740    -3.0110    29.6800 ca         1 H4O      -0.099000
      5 C17         13.6950    -2.7400    28.8210 ca         1 H4O      -0.075000
      6 C1          11.7020     0.5280    22.9310 cd         1 H4O       0.357800
      7 C7          10.9300    -0.3800    25.9400 cc         1 H4O       0.241300
      8 C6          10.2220     0.5910    25.0310 c3         1 H4O       0.038300
      9 C4          11.4680     2.5130    23.9140 cd         1 H4O      -0.233000
     10 C3          12.2630     2.5980    22.8020 cc         1 H4O       0.234900
     11 C13         14.5180    -0.4730    28.5070 ca         1 H4O      -0.075000
     12 C12         13.5550    -1.4660    28.2240 ca         1 H4O      -0.152500
     13 C11         12.0970    -0.0460    26.6470 cc         1 H4O      -0.227000
     14 C10         12.4260    -1.1740    27.3200 cd         1 H4O       0.249500
     15 O26         11.4740    -1.1700    21.1750 oh         1 H4O      -0.637000
     16 C24         11.5850    -0.9590    22.5940 c3         1 H4O       0.160000
     17 C25         12.7930    -1.7660    23.1140 c3         1 H4O      -0.085100
     18 N5          11.0970     1.1820    24.0000 na         1 H4O      -0.168500
     19 O9          11.5120    -2.1600    27.0510 os         1 H4O      -0.063700
     20 N8          10.5290    -1.6250    26.1390 nd         1 H4O      -0.353300
     21 C18         16.8270    -2.2940    30.8330 cg         1 H4O      -0.148000
     22 C19         17.7530    -2.5270    31.5840 c1         1 H4O      -0.093100
     23 C20         18.8440    -2.7970    32.5290 c3         1 H4O       0.006700
     24 C21         18.4720    -2.4280    33.9850 c3         1 H4O      -0.073400
     25 C22         19.5770    -2.7490    35.0130 c3         1 H4O       0.161600
     26 O23         20.7360    -1.9450    34.7670 oh         1 H4O      -0.663000
     27 H1          16.3290     0.0290    29.5750 ha         1 H4O       0.126500
     28 H2          14.8670    -3.9960    30.1320 ha         1 H4O       0.126500
     29 H3          12.9700    -3.5270    28.6230 ha         1 H4O       0.126000
     30 H4           9.7990     1.3970    25.6430 h1         1 H4O       0.080700
     31 H5           9.3870     0.0820    24.5350 h1         1 H4O       0.080700
     32 H6          11.1530     3.2770    24.6160 h4         1 H4O       0.155000
     33 H7          12.7490     3.4740    22.3930 h4         1 H4O       0.040100
     34 H8          14.4380     0.5160    28.0630 ha         1 H4O       0.126000
     35 H9          12.6090     0.9090    26.6320 ha         1 H4O       0.160000
     36 H11         10.6860    -1.3520    23.0850 h1         1 H4O       0.032700
     37 H12         12.9000    -1.6480    24.1980 hc         1 H4O       0.050700
     38 H13         12.6650    -2.8330    22.8990 hc         1 H4O       0.050700
     39 H14         13.7230    -1.4260    22.6420 hc         1 H4O       0.050700
     40 H15         19.1060    -3.8610    32.4730 hc         1 H4O       0.067200
     41 H16         19.7300    -2.2310    32.2150 hc         1 H4O       0.067200
     42 H17         18.2250    -1.3600    34.0430 hc         1 H4O       0.054700
     43 H18         17.5660    -2.9770    34.2720 hc         1 H4O       0.054700
     44 H19         19.1900    -2.5520    36.0220 h1         1 H4O       0.019700
     45 H20         19.8300    -3.8160    34.9550 h1         1 H4O       0.019700
     46 H21         21.3970    -2.1770    35.4570 ho         1 H4O       0.444000
     47 H10         11.9750    -0.4310    20.7590 ho         1 H4O       0.446000
@<TRIPOS>BOND
     1     1     3 ar  
     2     1     4 ar  
     3     1    21 1   
     4     2     6 2   
     5     2    10 1   
     6     3    11 ar  
     7     3    27 1   
     8     4     5 ar  
     9     4    28 1   
    10     5    12 ar  
    11     5    29 1   
    12     6    16 1   
    13     6    18 1   
    14     7     8 1   
    15     7    13 1   
    16     7    20 2   
    17     8    18 1   
    18     8    30 1   
    19     8    31 1   
    20     9    10 2   
    21     9    18 1   
    22     9    32 1   
    23    10    33 1   
    24    11    12 ar  
    25    11    34 1   
    26    12    14 1   
    27    13    14 2   
    28    13    35 1   
    29    14    19 1   
    30    15    16 1   
    31    15    47 1   
    32    16    17 1   
    33    16    36 1   
    34    17    37 1   
    35    17    38 1   
    36    17    39 1   
    37    19    20 1   
    38    21    22 3   
    39    22    23 1   
    40    23    24 1   
    41    23    40 1   
    42    23    41 1   
    43    24    25 1   
    44    24    42 1   
    45    24    43 1   
    46    25    26 1   
    47    25    44 1   
    48    25    45 1   
    49    26    46 1   
@<TRIPOS>SUBSTRUCTURE
     1 H4O         1 TEMP              0 ****  ****    0 ROOT
