@<TRIPOS>MOLECULE
H4O
   47    49     1     0     0
SMALL
bcc


@<TRIPOS>ATOM
      1 C15         15.7510    -1.9880    30.0210 ca         1 H4O       0.065000
      2 N2          12.4170     1.3720    22.1900 nc         1 H4O      -0.649000
      3 C14         15.6400    -0.7220    29.4380 ca         1 H4O      -0.117000
      4 C16         14.8050    -2.9640    29.6960 ca         1 H4O      -0.117000
      5 C17         13.7780    -2.6860    28.8130 ca         1 H4O      -0.093000
      6 C1          11.6950     0.5210    22.8730 cd         1 H4O       0.357800
      7 C7          11.1190    -0.3390    25.8950 cc         1 H4O       0.306600
      8 C6          10.3040     0.5030    24.9700 c3         1 H4O       0.009000
      9 C4          11.5340     2.4270    23.9530 cd         1 H4O      -0.265600
     10 C3          12.3250     2.5620    22.8510 cc         1 H4O       0.300200
     11 C13         14.6140    -0.4450    28.5560 ca         1 H4O      -0.093000
     12 C12         13.6700    -1.4210    28.2310 ca         1 H4O      -0.152500
     13 C11         12.2550     0.0410    26.6450 cc         1 H4O      -0.375600
     14 C10         12.6030    -1.0990    27.2980 cd         1 H4O       0.359200
     15 O26         11.3230    -1.0990    21.1430 oh         1 H4O      -0.574800
     16 C24         11.5260    -0.9330    22.5260 c3         1 H4O       0.136800
     17 C25         12.7670    -1.7280    22.9020 c3         1 H4O      -0.085100
     18 N5          11.1290     1.1190    23.9530 na         1 H4O      -0.189900
     19 O9          11.7450    -2.0700    26.9610 os         1 H4O      -0.108100
     20 N8          10.8240    -1.5930    26.0840 nd         1 H4O      -0.353300
     21 C18         16.8130    -2.2770    30.9260 cg         1 H4O      -0.148000
     22 C19         17.7140    -2.5170    31.6900 c1         1 H4O      -0.093100
     23 C20         18.7910    -2.7950    32.6280 c3         1 H4O       0.006700
     24 C21         18.4230    -2.4180    34.0680 c3         1 H4O      -0.073400
     25 C22         19.5180    -2.7570    35.0580 c3         1 H4O       0.138400
     26 O23         20.6770    -2.0160    34.7440 oh         1 H4O      -0.600800
     27 H1          16.3630     0.0450    29.6770 ha         1 H4O       0.144500
     28 H2          14.8750    -3.9480    30.1400 ha         1 H4O       0.144500
     29 H3          13.0630    -3.4640    28.5840 ha         1 H4O       0.144000
     30 H4           9.8140     1.2990    25.5290 h1         1 H4O       0.080700
     31 H5           9.5190    -0.0970    24.5090 h1         1 H4O       0.080700
     32 H6          11.2210     3.1230    24.7140 h4         1 H4O       0.173000
     33 H7          12.8260     3.4510    22.5010 h4         1 H4O       0.040100
     34 H8          14.5540     0.5420    28.1150 ha         1 H4O       0.144000
     35 H9          12.7230     1.0100    26.6890 ha         1 H4O       0.178000
     36 H11         10.6770    -1.3360    23.0930 h1         1 H4O       0.032700
     37 H12         12.9640    -1.6570    23.9710 hc         1 H4O       0.050700
     38 H13         12.6360    -2.7820    22.6570 hc         1 H4O       0.050700
     39 H14         13.6430    -1.3490    22.3730 hc         1 H4O       0.050700
     40 H15         19.0420    -3.8590    32.5800 hc         1 H4O       0.067200
     41 H16         19.6860    -2.2520    32.3130 hc         1 H4O       0.067200
     42 H17         18.1860    -1.3530    34.1220 hc         1 H4O       0.054700
     43 H18         17.5210    -2.9570    34.3650 hc         1 H4O       0.054700
     44 H19         19.1600    -2.5300    36.0700 h1         1 H4O       0.019700
     45 H20         19.7120    -3.8380    35.0250 h1         1 H4O       0.019700
     46 H21         21.3850    -2.3000    35.3290 ho         1 H4O       0.405000
     47 H10         10.5370    -0.6080    20.8840 ho         1 H4O       0.407000
@<TRIPOS>BOND
     1     1     3 ar  
     2     1     4 ar  
     3     1    21 1   
     4     2     6 2   
     5     2    10 1   
     6     3    11 ar  
     7     3    27 1   
     8     4     5 ar  
     9     4    28 1   
    10     5    12 ar  
    11     5    29 1   
    12     6    16 1   
    13     6    18 1   
    14     7     8 1   
    15     7    13 1   
    16     7    20 2   
    17     8    18 1   
    18     8    30 1   
    19     8    31 1   
    20     9    10 2   
    21     9    18 1   
    22     9    32 1   
    23    10    33 1   
    24    11    12 ar  
    25    11    34 1   
    26    12    14 1   
    27    13    14 2   
    28    13    35 1   
    29    14    19 1   
    30    15    16 1   
    31    15    47 1   
    32    16    17 1   
    33    16    36 1   
    34    17    37 1   
    35    17    38 1   
    36    17    39 1   
    37    19    20 1   
    38    21    22 3   
    39    22    23 1   
    40    23    24 1   
    41    23    40 1   
    42    23    41 1   
    43    24    25 1   
    44    24    42 1   
    45    24    43 1   
    46    25    26 1   
    47    25    44 1   
    48    25    45 1   
    49    26    46 1   
@<TRIPOS>SUBSTRUCTURE
     1 H4O         1 TEMP              0 ****  ****    0 ROOT
