@<TRIPOS>MOLECULE
H4Q
   25    25     1     0     0
SMALL
bcc


@<TRIPOS>ATOM
      1 CAA          3.9880     0.0400     0.8740 c3         1 H4Q      -0.089100
      2 CAH          2.4970    -0.2710     0.8900 c3         1 H4Q      -0.071400
      3 CAK          1.7170     0.3520    -0.2750 c3         1 H4Q      -0.008400
      4 CAB          2.1770    -0.1820    -1.6330 c3         1 H4Q      -0.083100
      5 CAJ          0.2280     0.1650    -0.0930 ca         1 H4Q      -0.111300
      6 CAF         -0.3390    -1.1060     0.0040 ca         1 H4Q      -0.086500
      7 CAD         -1.7010    -1.2850     0.1800 ca         1 H4Q      -0.192500
      8 CAI         -2.5450    -0.1780     0.2600 ca         1 H4Q       0.135100
      9 OAC         -3.8660    -0.4020     0.4340 oh         1 H4Q      -0.496100
     10 CAE         -2.0010     1.0970     0.1600 ca         1 H4Q      -0.192500
     11 CAG         -0.6310     1.2550    -0.0140 ca         1 H4Q      -0.086500
     12 H1           4.4780    -0.3620     1.7610 hc         1 H4Q       0.031700
     13 H2           4.4880    -0.3890     0.0040 hc         1 H4Q       0.031700
     14 H3           4.1640     1.1170     0.8600 hc         1 H4Q       0.031700
     15 H4           2.3490    -1.3560     0.8890 hc         1 H4Q       0.040700
     16 H5           2.0680     0.0910     1.8280 hc         1 H4Q       0.040700
     17 H6           1.9130     1.4300    -0.2610 hc         1 H4Q       0.046700
     18 H7           1.6170     0.2830    -2.4450 hc         1 H4Q       0.034033
     19 H8           3.2340     0.0220    -1.8040 hc         1 H4Q       0.034033
     20 H9           2.0340    -1.2620    -1.7060 hc         1 H4Q       0.034033
     21 H10          0.2920    -1.9850    -0.0530 ha         1 H4Q       0.129500
     22 H11         -2.1150    -2.2830     0.2580 ha         1 H4Q       0.137000
     23 H12         -4.3430     0.4330     0.4860 ho         1 H4Q       0.424000
     24 H13         -2.6400     1.9720     0.2190 ha         1 H4Q       0.137000
     25 H14         -0.2300     2.2600    -0.0880 ha         1 H4Q       0.129500
@<TRIPOS>BOND
     1     1     2 1   
     2     1    12 1   
     3     1    13 1   
     4     1    14 1   
     5     2     3 1   
     6     2    15 1   
     7     2    16 1   
     8     3     4 1   
     9     3     5 1   
    10     3    17 1   
    11     4    18 1   
    12     4    19 1   
    13     4    20 1   
    14     5     6 ar  
    15     5    11 ar  
    16     6     7 ar  
    17     6    21 1   
    18     7     8 ar  
    19     7    22 1   
    20     8     9 1   
    21     8    10 ar  
    22     9    23 1   
    23    10    11 ar  
    24    10    24 1   
    25    11    25 1   
@<TRIPOS>SUBSTRUCTURE
     1 H4Q         1 TEMP              0 ****  ****    0 ROOT
