@<TRIPOS>MOLECULE
H4Q
   25    25     1     0     0
SMALL
No Charge or Current Charge


@<TRIPOS>ATOM
      1 CAA          4.0180     0.0890     0.9070 c3         1 H4Q      -0.089100
      2 CAH          2.5120    -0.2500     0.9020 c3         1 H4Q      -0.071400
      3 CAK          1.7210     0.3350    -0.2990 c3         1 H4Q      -0.008400
      4 CAB          2.1780    -0.2400    -1.6610 c3         1 H4Q      -0.083100
      5 CAJ          0.2140     0.1440    -0.1040 ca         1 H4Q      -0.111300
      6 CAF         -0.3520    -1.1480    -0.0600 ca         1 H4Q      -0.068500
      7 CAD         -1.7370    -1.3110     0.1200 ca         1 H4Q      -0.174500
      8 CAI         -2.5660    -0.1900     0.2580 ca         1 H4Q       0.135100
      9 OAC         -3.9060    -0.3590     0.4330 oh         1 H4Q      -0.535100
     10 CAE         -2.0130     1.1000     0.2170 ca         1 H4Q      -0.174500
     11 CAG         -0.6290     1.2670     0.0360 ca         1 H4Q      -0.068500
     12 H1           4.4870    -0.2820     1.8260 hc         1 H4Q       0.031700
     13 H2           4.5310    -0.3750     0.0570 hc         1 H4Q       0.031700
     14 H3           4.1730     1.1740     0.8590 hc         1 H4Q       0.031700
     15 H4           2.3920    -1.3390     0.9310 hc         1 H4Q       0.040700
     16 H5           2.0720     0.1370     1.8310 hc         1 H4Q       0.040700
     17 H6           1.9330     1.4110    -0.3270 hc         1 H4Q       0.046700
     18 H7           1.5550     0.1570    -2.4710 hc         1 H4Q       0.034033
     19 H8           3.2170     0.0340    -1.8760 hc         1 H4Q       0.034033
     20 H9           2.1010    -1.3340    -1.6750 hc         1 H4Q       0.034033
     21 H10          0.2790    -2.0280    -0.1650 ha         1 H4Q       0.111500
     22 H11         -2.1650    -2.3100     0.1530 ha         1 H4Q       0.119000
     23 H12         -4.3230     0.5260     0.5100 ho         1 H4Q       0.463000
     24 H13         -2.6480     1.9760     0.3230 ha         1 H4Q       0.119000
     25 H14         -0.2120     2.2710     0.0060 ha         1 H4Q       0.111500
@<TRIPOS>BOND
     1     1     2 1   
     2     1    12 1   
     3     1    13 1   
     4     1    14 1   
     5     2     3 1   
     6     2    15 1   
     7     2    16 1   
     8     3     4 1   
     9     3     5 1   
    10     3    17 1   
    11     4    18 1   
    12     4    19 1   
    13     4    20 1   
    14     5     6 ar  
    15     5    11 ar  
    16     6     7 ar  
    17     6    21 1   
    18     7     8 ar  
    19     7    22 1   
    20     8     9 1   
    21     8    10 ar  
    22     9    23 1   
    23    10    11 ar  
    24    10    24 1   
    25    11    25 1   
@<TRIPOS>SUBSTRUCTURE
     1 H4Q         1 TEMP              0 ****  ****    0 ROOT
