@<TRIPOS>MOLECULE
H4R
   61    65     1     0     0
SMALL
abcg2


@<TRIPOS>ATOM
      1 C1          15.7660    -0.1710    29.4170 ca         1 H4R      -0.107500
      2 C2          15.6160    -1.2550    30.2910 ca         1 H4R       0.092000
      3 C3          14.4550    -2.0300    30.2050 ca         1 H4R      -0.107500
      4 C4          13.4750    -1.7340    29.2770 ca         1 H4R      -0.072000
      5 C14         12.0760     2.4570    23.2020 cc         1 H4R      -0.231000
      6 C15         12.8630     2.1540    22.1320 cd         1 H4R       0.231900
      7 C18         11.6640    -1.1580    22.8800 c3         1 H4R       0.158000
      8 C21         16.6240    -1.5630    31.2440 cg         1 H4R      -0.191000
      9 C19         12.8200    -1.9330    23.4930 c3         1 H4R      -0.085100
     10 C17         12.0020     0.3050    22.7680 cc         1 H4R       0.358800
     11 C22         17.4800    -1.8280    32.0540 c1         1 H4R      -0.017100
     12 O36         24.4950    -1.9770    35.4760 o          1 H4R      -0.739500
     13 C34         24.4330    -2.4240    36.6400 c          1 H4R       0.713000
     14 O35         25.3480    -3.0020    37.2630 o          1 H4R      -0.739500
     15 C33         23.1160    -2.2060    37.4180 c3         1 H4R      -0.212400
     16 C32         21.8810    -1.9230    36.5760 c3         1 H4R      -0.046400
     17 N27         20.3430    -2.8610    34.8730 n3         1 H4R      -0.739600
     18 C26         20.0210    -3.9580    33.9770 c5         1 H4R       0.193300
     19 C24         18.6650    -3.5910    33.4280 cx         1 H4R      -0.116200
     20 C28         19.0980    -2.4210    35.4810 c5         1 H4R       0.193300
     21 C25         18.0780    -2.6160    34.3870 cx         1 H4R      -0.116200
     22 C23         18.4960    -2.1450    33.0080 cx         1 H4R      -0.055600
     23 C5          13.6280    -0.6520    28.4060 ca         1 H4R      -0.171500
     24 C6          14.7870     0.1230    28.4900 ca         1 H4R      -0.072000
     25 C7          12.6140    -0.3280    27.4170 cc         1 H4R       0.262500
     26 O11         11.5320    -1.1130    27.3490 os         1 H4R      -0.063700
     27 N10         10.7010    -0.6780    26.3670 nc         1 H4R      -0.364300
     28 C9          11.2730     0.3690    25.8470 cd         1 H4R       0.241300
     29 C8          12.5070     0.6490    26.4760 cd         1 H4R      -0.237000
     30 C12         10.6220     1.0990    24.7180 c3         1 H4R       0.039300
     31 N13         11.5240     1.2680    23.5980 na         1 H4R      -0.167500
     32 O20         11.4050    -1.7130    21.6130 oh         1 H4R      -0.637000
     33 N16         12.8110     0.8150    21.8730 nd         1 H4R      -0.651000
     34 H1          16.6580     0.4390    29.4680 ha         1 H4R       0.128000
     35 H2          14.3240    -2.8710    30.8730 ha         1 H4R       0.128000
     36 H3          12.5910    -2.3550    29.2390 ha         1 H4R       0.121500
     37 H4          11.8540     3.3840    23.7040 h4         1 H4R       0.155000
     38 H5          13.4580     2.8290    21.5360 h4         1 H4R       0.038100
     39 H6          10.7920    -1.2710    23.5370 h1         1 H4R       0.033700
     40 H7          13.0570    -1.5510    24.4860 hc         1 H4R       0.051700
     41 H8          12.5660    -2.9890    23.5910 hc         1 H4R       0.051700
     42 H9          13.7150    -1.8450    22.8760 hc         1 H4R       0.051700
     43 H11         23.2820    -1.3630    38.0990 hc         1 H4R       0.018200
     44 H12         22.9370    -3.0670    38.0700 hc         1 H4R       0.018200
     45 H13         22.0810    -1.1000    35.8860 hc         1 H4R       0.023700
     46 H14         21.0690    -1.5920    37.2300 hc         1 H4R       0.023700
     47 H15         21.1740    -3.9550    36.4800 h1         1 H4R       0.040200
     48 H16         22.2750    -3.4980    35.1830 h1         1 H4R       0.040200
     49 H18         19.9350    -4.9260    34.4990 h1         1 H4R       0.042450
     50 H19         20.7940    -4.0680    33.2110 h1         1 H4R       0.042450
     51 H20         18.0660    -4.3450    32.9340 hc         1 H4R       0.084700
     52 H21         19.1720    -1.3870    35.8240 h1         1 H4R       0.042450
     53 H22         18.8050    -3.0360    36.3500 h1         1 H4R       0.042450
     54 H23         17.0240    -2.6140    34.6340 hc         1 H4R       0.084700
     55 H24         19.3950    -1.5390    32.9420 hc         1 H4R       0.133700
     56 H25         14.9310     0.9630    27.8240 ha         1 H4R       0.121500
     57 H26         13.1960     1.4460    26.2540 ha         1 H4R       0.161000
     58 H27         10.3160     2.0920    25.0470 h1         1 H4R       0.078200
     59 H28          9.7200     0.5720    24.4050 h1         1 H4R       0.078200
     60 H29         10.6480    -1.2600    21.2270 ho         1 H4R       0.443000
     61 C31         21.4330    -3.1400    35.7800 c3         1 H4R       0.178800
@<TRIPOS>BOND
     1     1     2 ar  
     2     1    24 ar  
     3     1    34 1   
     4     2     3 ar  
     5     2     8 1   
     6     3     4 ar  
     7     3    35 1   
     8     4    23 ar  
     9     4    36 1   
    10     5     6 2   
    11     5    31 1   
    12     5    37 1   
    13     6    33 1   
    14     6    38 1   
    15     7     9 1   
    16     7    10 1   
    17     7    32 1   
    18     7    39 1   
    19     8    11 3   
    20     9    40 1   
    21     9    41 1   
    22     9    42 1   
    23    10    31 1   
    24    10    33 2   
    25    11    22 1   
    26    12    13 1   
    27    13    14 1   
    28    13    15 1   
    29    15    16 1   
    30    15    43 1   
    31    15    44 1   
    32    16    45 1   
    33    16    46 1   
    34    16    61 1   
    35    17    18 1   
    36    17    20 1   
    37    17    61 1   
    38    18    19 1   
    39    18    49 1   
    40    18    50 1   
    41    19    21 1   
    42    19    22 1   
    43    19    51 1   
    44    20    21 1   
    45    20    52 1   
    46    20    53 1   
    47    21    22 1   
    48    21    54 1   
    49    22    55 1   
    50    23    24 ar  
    51    23    25 1   
    52    24    56 1   
    53    25    26 1   
    54    25    29 2   
    55    26    27 1   
    56    27    28 2   
    57    28    29 1   
    58    28    30 1   
    59    29    57 1   
    60    30    31 1   
    61    30    58 1   
    62    30    59 1   
    63    32    60 1   
    64    47    61 1   
    65    48    61 1   
@<TRIPOS>SUBSTRUCTURE
     1 H4R         1 TEMP              0 ****  ****    0 ROOT
