@<TRIPOS>MOLECULE
H4R
   61    65     1     0     0
SMALL
No Charge or Current Charge


@<TRIPOS>ATOM
      1 C1          15.6730    -0.2290    29.4110 ca         1 H4R      -0.107500
      2 C2          15.5460    -1.3110    30.2970 ca         1 H4R       0.092000
      3 C3          14.3880    -2.1050    30.2600 ca         1 H4R      -0.107500
      4 C4          13.3630    -1.8190    29.3420 ca         1 H4R      -0.072000
      5 C14         12.2340     2.5100    23.2640 cc         1 H4R      -0.231000
      6 C15         13.0160     2.1870    22.1870 cd         1 H4R       0.231900
      7 C18         11.5840    -1.1090    22.7890 c3         1 H4R       0.158000
      8 C21         16.5910    -1.6030    31.2340 cg         1 H4R      -0.191000
      9 C19         12.5920    -2.0130    23.5280 c3         1 H4R      -0.085100
     10 C17         12.0290     0.3520    22.7610 cc         1 H4R       0.358800
     11 C22         17.4710    -1.8580    32.0320 c1         1 H4R      -0.017100
     12 O36         25.1450    -1.4600    36.2050 o          1 H4R      -0.739500
     13 C34         24.4650    -2.3690    36.6560 c          1 H4R       0.713000
     14 O35         24.7220    -3.5520    36.4900 o          1 H4R      -0.739500
     15 C33         23.1990    -2.0030    37.4530 c3         1 H4R      -0.212400
     16 C32         21.9770    -1.8050    36.5180 c3         1 H4R      -0.046400
     17 N27         20.3770    -2.8840    34.8550 n3         1 H4R      -0.739600
     18 C26         20.0620    -4.0410    33.9650 c5         1 H4R       0.193300
     19 C24         18.6830    -3.6390    33.4070 cx         1 H4R      -0.116200
     20 C28         19.1000    -2.4780    35.5200 c5         1 H4R       0.193300
     21 C25         18.0830    -2.6680    34.3770 cx         1 H4R      -0.116200
     22 C23         18.4980    -2.1860    32.9950 cx         1 H4R      -0.055600
     23 C5          13.4800    -0.7340    28.4460 ca         1 H4R      -0.171500
     24 C6          14.6490     0.0600    28.4910 ca         1 H4R      -0.072000
     25 C7          12.3970    -0.4540    27.4940 cc         1 H4R       0.262500
     26 O11         11.2450    -1.1960    27.4270 os         1 H4R      -0.063700
     27 N10         10.4290    -0.6450    26.3660 nc         1 H4R      -0.364300
     28 C9          11.1420     0.3650    25.8900 cd         1 H4R       0.241300
     29 C8          12.3720     0.5260    26.5550 cd         1 H4R      -0.237000
     30 C12         10.6360     1.1970    24.7400 c3         1 H4R       0.039300
     31 N13         11.5960     1.3430    23.6280 na         1 H4R      -0.167500
     32 O20         11.4010    -1.6260    21.4580 oh         1 H4R      -0.637000
     33 N16         12.8840     0.8500    21.8750 nd         1 H4R      -0.651000
     34 H1          16.5660     0.3910    29.4330 ha         1 H4R       0.128000
     35 H2          14.2810    -2.9440    30.9430 ha         1 H4R       0.128000
     36 H3          12.4750    -2.4490    29.3330 ha         1 H4R       0.121500
     37 H4          12.0910     3.4550    23.7730 h4         1 H4R       0.155000
     38 H5          13.6650     2.8420    21.6180 h4         1 H4R       0.038100
     39 H6          10.6290    -1.1700    23.3280 h1         1 H4R       0.033700
     40 H7          12.7410    -1.6680    24.5570 hc         1 H4R       0.051700
     41 H8          12.2280    -3.0470    23.5660 hc         1 H4R       0.051700
     42 H9          13.5660    -2.0060    23.0230 hc         1 H4R       0.051700
     43 H11         23.3350    -1.0330    37.9480 hc         1 H4R       0.018200
     44 H12         22.9270    -2.8110    38.1430 hc         1 H4R       0.018200
     45 H13         22.1980    -1.0040    35.8010 hc         1 H4R       0.023700
     46 H14         21.1380    -1.4560    37.1310 hc         1 H4R       0.023700
     47 H15         21.3390    -3.8750    36.4660 h1         1 H4R       0.040200
     48 H16         22.4000    -3.4100    35.1330 h1         1 H4R       0.040200
     49 H18         20.0050    -4.9790    34.5360 h1         1 H4R       0.042450
     50 H19         20.8200    -4.1710    33.1800 h1         1 H4R       0.042450
     51 H20         18.0420    -4.3930    32.9570 hc         1 H4R       0.084700
     52 H21         19.1350    -1.4420    35.8840 h1         1 H4R       0.042450
     53 H22         18.8710    -3.1290    36.3750 h1         1 H4R       0.042450
     54 H23         17.0230    -2.7440    34.6050 hc         1 H4R       0.084700
     55 H24         19.3820    -1.5560    32.9130 hc         1 H4R       0.133700
     56 H25         14.7780     0.9040    27.8190 ha         1 H4R       0.121500
     57 H26         13.1290     1.2700    26.3440 ha         1 H4R       0.161000
     58 H27         10.3850     2.1940    25.1210 h1         1 H4R       0.078200
     59 H28          9.7110     0.7550    24.3480 h1         1 H4R       0.078200
     60 H29         12.0470    -1.1400    20.8960 ho         1 H4R       0.443000
     61 C31         21.5490    -3.0760    35.7410 c3         1 H4R       0.178800
@<TRIPOS>BOND
     1     1     2 ar  
     2     1    24 ar  
     3     1    34 1   
     4     2     3 ar  
     5     2     8 1   
     6     3     4 ar  
     7     3    35 1   
     8     4    23 ar  
     9     4    36 1   
    10     5     6 2   
    11     5    31 1   
    12     5    37 1   
    13     6    33 1   
    14     6    38 1   
    15     7     9 1   
    16     7    10 1   
    17     7    32 1   
    18     7    39 1   
    19     8    11 3   
    20     9    40 1   
    21     9    41 1   
    22     9    42 1   
    23    10    31 1   
    24    10    33 2   
    25    11    22 1   
    26    12    13 1   
    27    13    14 1   
    28    13    15 1   
    29    15    16 1   
    30    15    43 1   
    31    15    44 1   
    32    16    45 1   
    33    16    46 1   
    34    16    61 1   
    35    17    18 1   
    36    17    20 1   
    37    17    61 1   
    38    18    19 1   
    39    18    49 1   
    40    18    50 1   
    41    19    21 1   
    42    19    22 1   
    43    19    51 1   
    44    20    21 1   
    45    20    52 1   
    46    20    53 1   
    47    21    22 1   
    48    21    54 1   
    49    22    55 1   
    50    23    24 ar  
    51    23    25 1   
    52    24    56 1   
    53    25    26 1   
    54    25    29 2   
    55    26    27 1   
    56    27    28 2   
    57    28    29 1   
    58    28    30 1   
    59    29    57 1   
    60    30    31 1   
    61    30    58 1   
    62    30    59 1   
    63    32    60 1   
    64    47    61 1   
    65    48    61 1   
@<TRIPOS>SUBSTRUCTURE
     1 H4R         1 TEMP              0 ****  ****    0 ROOT
