@<TRIPOS>MOLECULE
H4S
  159   159     1     0     0
SMALL
No Charge or Current Charge


@<TRIPOS>ATOM
      1 NAA         -5.7630     6.0990    -2.0090 n7         1 H4S      -0.877400
      2 CAB         -6.2700     4.7070    -1.9570 c3         1 H4S       0.147800
      3 CAC         -5.3650     3.7840    -1.0850 c3         1 H4S       0.079700
      4 CAD         -5.8360     2.2940    -1.0350 c3         1 H4S       0.128300
      5 CAE         -6.4910     7.1080    -2.8290 c6         1 H4S       0.196500
      6 CAF         -5.7260     8.4860    -2.8160 c6         1 H4S       0.189300
      7 CAG         -6.4970     9.5620    -3.6580 c6         1 H4S       0.145300
      8 CAH         -7.9430     9.7520    -3.0850 c6         1 H4S       0.109300
      9 CAI         -8.7220     8.3920    -3.1400 c6         1 H4S       0.152300
     10 CAJ         -7.9690     7.2830    -2.3530 c6         1 H4S      -0.099400
     11 OAK         -5.5530     8.9670    -1.4650 oh         1 H4S      -0.705000
     12 OAL         -6.5760     9.1800    -5.0430 oh         1 H4S      -0.705000
     13 OAM         -8.9060     7.9690    -4.5030 oh         1 H4S      -0.707000
     14 NAN         -3.9520     3.8530    -1.5050 ns         1 H4S      -0.485900
     15 CAO         -2.9610     4.5480    -0.8510 c          1 H4S       0.609100
     16 CAP         -7.3030     2.0950    -0.5190 c3         1 H4S       0.136300
     17 OAQ         -3.1640     5.1770     0.1800 o          1 H4S      -0.613100
     18 OAR         -5.6570     1.6760    -2.3300 oh         1 H4S      -0.656000
     19 OAS         -7.4640     2.7400     0.7540 oh         1 H4S      -0.651000
     20 CAT         -7.7060     0.6020    -0.3780 c3         1 H4S      -0.108400
     21 CAU         -9.1790     0.3790     0.0490 c3         1 H4S      -0.073400
     22 CAV         -9.5610    -1.1150     0.1340 c3         1 H4S      -0.074400
     23 CAW        -11.0250    -1.3400     0.5740 c3         1 H4S      -0.075400
     24 CAX        -11.4050    -2.8340     0.6660 c3         1 H4S      -0.073400
     25 CAY        -12.8630    -3.0600     1.1220 c3         1 H4S      -0.074400
     26 CAZ        -13.2400    -4.5540     1.2180 c3         1 H4S      -0.073400
     27 CBA        -14.6960    -4.7810     1.6820 c3         1 H4S      -0.074400
     28 CBB        -15.0720    -6.2760     1.7820 c3         1 H4S      -0.073400
     29 CBC        -16.5250    -6.5030     2.2520 c3         1 H4S      -0.074400
     30 CBD        -16.8990    -7.9980     2.3530 c3         1 H4S      -0.074400
     31 CBE        -18.3510    -8.2270     2.8260 c3         1 H4S      -0.075400
     32 CBF        -18.7250    -9.7220     2.9250 c3         1 H4S      -0.074400
     33 CBG        -20.1730    -9.9520     3.4000 c3         1 H4S      -0.088100
     34 CBH         -1.5830     4.4920    -1.5190 c3         1 H4S      -0.157400
     35 CBI         -0.6090     3.5840    -0.7310 c3         1 H4S      -0.065400
     36 CBJ          0.7970     3.5050    -1.3660 c3         1 H4S      -0.075400
     37 CBK          1.7690     2.6130    -0.5630 c3         1 H4S      -0.075400
     38 CBL          3.1810     2.5360    -1.1850 c3         1 H4S      -0.073400
     39 CBM          4.1510     1.6580    -0.3650 c3         1 H4S      -0.075400
     40 CBN          5.5680     1.5830    -0.9750 c3         1 H4S      -0.073400
     41 CBO          6.5350     0.7150    -0.1410 c3         1 H4S      -0.075400
     42 CBP          7.9570     0.6430    -0.7400 c3         1 H4S      -0.073400
     43 CBQ          8.9230    -0.2140     0.1070 c3         1 H4S      -0.074400
     44 CBR         10.3490    -0.2840    -0.4830 c3         1 H4S      -0.073400
     45 CBS         11.3140    -1.1320     0.3750 c3         1 H4S      -0.074400
     46 CBT         12.7440    -1.1980    -0.2050 c3         1 H4S      -0.074400
     47 CBU         13.7070    -2.0360     0.6650 c3         1 H4S      -0.074400
     48 CBV         15.1430    -2.0970     0.0980 c3         1 H4S      -0.074400
     49 CBW         16.1030    -2.9230     0.9810 c3         1 H4S      -0.074400
     50 CBX         17.5430    -2.9780     0.4260 c3         1 H4S      -0.074400
     51 CBY         18.5030    -3.7930     1.3200 c3         1 H4S      -0.074400
     52 CBZ         19.9460    -3.8460     0.7720 c3         1 H4S      -0.074400
     53 CCA         20.9030    -4.6570     1.6720 c3         1 H4S      -0.074400
     54 CCB         22.3470    -4.7130     1.1260 c3         1 H4S      -0.074400
     55 CCC         23.3030    -5.5240     2.0280 c3         1 H4S      -0.074400
     56 CCD         24.7470    -5.5810     1.4840 c3         1 H4S      -0.075400
     57 CCE         25.7030    -6.3890     2.3890 c3         1 H4S      -0.074400
     58 CCF         27.1450    -6.4460     1.8470 c3         1 H4S      -0.088100
     59 OCG         -7.8910    10.2570    -1.7320 oh         1 H4S      -0.701000
     60 HNAA        -5.6690     6.4690    -1.0550 hn         1 H4S       0.443000
     61 HAB         -7.2830     4.6920    -1.5340 h1         1 H4S       0.031700
     62 HABA        -6.3290     4.2980    -2.9750 h1         1 H4S       0.031700
     63 HAC         -5.4270     4.1660    -0.0580 h1         1 H4S       0.094700
     64 HAD         -5.1800     1.7870    -0.3140 h1         1 H4S       0.081700
     65 HAE         -6.5110     6.7490    -3.8690 h1         1 H4S       0.079700
     66 HAF         -4.7390     8.3310    -3.2770 h1         1 H4S       0.056700
     67 HAG         -5.9570    10.5170    -3.5780 h1         1 H4S       0.041700
     68 HAH         -8.4710    10.4820    -3.7160 h1         1 H4S       0.013700
     69 HAI         -9.7070     8.5410    -2.6740 h1         1 H4S       0.024700
     70 HAJ         -8.5170     6.3390    -2.4630 hc         1 H4S       0.061700
     71 HAJA        -7.9890     7.5200    -1.2810 hc         1 H4S       0.061700
     72 HOAK        -6.3820     9.5000    -1.3080 ho         1 H4S       0.505000
     73 HOAL        -7.4430     8.6870    -5.1000 ho         1 H4S       0.501000
     74 HOAM        -9.7100     7.3970    -4.5180 ho         1 H4S       0.496000
     75 HNAN        -3.6850     3.3610    -2.3490 hn         1 H4S       0.314500
     76 HAP         -7.9850     2.5540    -1.2490 h1         1 H4S       0.069700
     77 HOAR        -6.3170     2.0640    -2.9430 ho         1 H4S       0.442000
     78 HOAS        -7.1980     2.0950     1.4440 ho         1 H4S       0.445000
     79 HAT         -7.5510     0.0970    -1.3390 hc         1 H4S       0.050700
     80 HATA        -7.0400     0.1090     0.3420 hc         1 H4S       0.050700
     81 HAU         -9.3560     0.8450     1.0250 hc         1 H4S       0.044200
     82 HAUA        -9.8410     0.8790    -0.6690 hc         1 H4S       0.044200
     83 HAV         -9.4040    -1.5850    -0.8460 hc         1 H4S       0.037700
     84 HAVA        -8.8910    -1.6190     0.8420 hc         1 H4S       0.037700
     85 HAW        -11.1820    -0.8680     1.5520 hc         1 H4S       0.038200
     86 HAWA       -11.6960    -0.8400    -0.1350 hc         1 H4S       0.038200
     87 HAX        -11.2560    -3.3040    -0.3140 hc         1 H4S       0.037700
     88 HAXA       -10.7270    -3.3350     1.3680 hc         1 H4S       0.037700
     89 HAY        -13.0100    -2.5880     2.1020 hc         1 H4S       0.037200
     90 HAYA       -13.5420    -2.5610     0.4200 hc         1 H4S       0.037200
     91 HAZ        -13.0960    -5.0260     0.2380 hc         1 H4S       0.037700
     92 HAZA       -12.5580    -5.0540     1.9170 hc         1 H4S       0.037700
     93 HBA        -14.8400    -4.3080     2.6610 hc         1 H4S       0.036700
     94 HBAA       -15.3790    -4.2840     0.9820 hc         1 H4S       0.036700
     95 HBB        -14.9320    -6.7490     0.8020 hc         1 H4S       0.037200
     96 HBBA       -14.3860    -6.7730     2.4790 hc         1 H4S       0.037200
     97 HBC        -16.6660    -6.0290     3.2310 hc         1 H4S       0.036700
     98 HBCA       -17.2110    -6.0070     1.5540 hc         1 H4S       0.036700
     99 HBD        -16.7610    -8.4720     1.3730 hc         1 H4S       0.036700
    100 HBDA       -16.2110    -8.4950     3.0490 hc         1 H4S       0.036700
    101 HBE        -18.4890    -7.7560     3.8080 hc         1 H4S       0.036700
    102 HBEA       -19.0400    -7.7290     2.1320 hc         1 H4S       0.036700
    103 HBF        -18.5930   -10.1960     1.9440 hc         1 H4S       0.036700
    104 HBFA       -18.0390   -10.2240     3.6180 hc         1 H4S       0.036700
    105 HBG        -20.3270    -9.5210     4.3970 hc         1 H4S       0.031367
    106 HBGA       -20.8870    -9.4910     2.7080 hc         1 H4S       0.031367
    107 HBGB       -20.3910   -11.0260     3.4540 hc         1 H4S       0.031367
    108 HBH         -1.6760     4.1010    -2.5400 hc         1 H4S       0.056200
    109 HBHA        -1.1660     5.5050    -1.5480 hc         1 H4S       0.056200
    110 HBI         -0.5190     3.9600     0.2960 hc         1 H4S       0.053700
    111 HBIA        -1.0340     2.5740    -0.6640 hc         1 H4S       0.053700
    112 HBJ          0.7100     3.1150    -2.3880 hc         1 H4S       0.035200
    113 HBJA         1.2150     4.5160    -1.4420 hc         1 H4S       0.035200
    114 HBK          1.8500     3.0010     0.4610 hc         1 H4S       0.039200
    115 HBKA         1.3530     1.6010    -0.4890 hc         1 H4S       0.039200
    116 HBL          3.1050     2.1370    -2.2050 hc         1 H4S       0.036700
    117 HBLA         3.5940     3.5490    -1.2670 hc         1 H4S       0.036700
    118 HBM          4.2200     2.0550     0.6550 hc         1 H4S       0.037700
    119 HBMA         3.7390     0.6440    -0.2870 hc         1 H4S       0.037700
    120 HBN          5.5020     1.1760    -1.9920 hc         1 H4S       0.036700
    121 HBNA         5.9770     2.5970    -1.0610 hc         1 H4S       0.036700
    122 HBO          6.5940     1.1200     0.8770 hc         1 H4S       0.037200
    123 HBOA         6.1280    -0.3000    -0.0580 hc         1 H4S       0.037200
    124 HBP          7.9010     0.2290    -1.7540 hc         1 H4S       0.037200
    125 HBPA         8.3620     1.6590    -0.8290 hc         1 H4S       0.037200
    126 HBQ          8.9740     0.1990     1.1220 hc         1 H4S       0.036700
    127 HBQA         8.5200    -1.2310     0.1940 hc         1 H4S       0.036700
    128 HBR         10.3010    -0.7050    -1.4950 hc         1 H4S       0.037200
    129 HBRA        10.7500     0.7330    -0.5770 hc         1 H4S       0.037200
    130 HBS         11.3560    -0.7120     1.3880 hc         1 H4S       0.036700
    131 HBSA        10.9150    -2.1500     0.4660 hc         1 H4S       0.036700
    132 HBT         12.7060    -1.6240    -1.2150 hc         1 H4S       0.036700
    133 HBTA        13.1410    -0.1790    -0.3010 hc         1 H4S       0.036700
    134 HBU         13.7380    -1.6130     1.6760 hc         1 H4S       0.036700
    135 HBUA        13.3130    -3.0560     0.7570 hc         1 H4S       0.036700
    136 HBV         15.1150    -2.5300    -0.9100 hc         1 H4S       0.037200
    137 HBVA        15.5340    -1.0760    -0.0020 hc         1 H4S       0.037200
    138 HBW         16.1230    -2.4930     1.9900 hc         1 H4S       0.037200
    139 HBWA        15.7150    -3.9460     1.0760 hc         1 H4S       0.037200
    140 HBX         17.5260    -3.4170    -0.5790 hc         1 H4S       0.037200
    141 HBXA        17.9290    -1.9550     0.3230 hc         1 H4S       0.037200
    142 HBY         18.5170    -3.3550     2.3260 hc         1 H4S       0.036700
    143 HBYA        18.1190    -4.8160     1.4220 hc         1 H4S       0.036700
    144 HBZ         19.9330    -4.2880    -0.2330 hc         1 H4S       0.037200
    145 HBZA        20.3290    -2.8230     0.6670 hc         1 H4S       0.037200
    146 HCA         20.9150    -4.2140     2.6760 hc         1 H4S       0.036700
    147 HCAA        20.5190    -5.6790     1.7770 hc         1 H4S       0.036700
    148 HCB         22.3360    -5.1570     0.1220 hc         1 H4S       0.036700
    149 HCBA        22.7320    -3.6910     1.0200 hc         1 H4S       0.036700
    150 HCC         23.3140    -5.0800     3.0320 hc         1 H4S       0.036700
    151 HCCA        22.9170    -6.5460     2.1350 hc         1 H4S       0.036700
    152 HCD         24.7370    -6.0290     0.4820 hc         1 H4S       0.036700
    153 HCDA        25.1320    -4.5600     1.3750 hc         1 H4S       0.036700
    154 HCE         25.7170    -5.9440     3.3920 hc         1 H4S       0.036700
    155 HCEA        25.3230    -7.4120     2.4980 hc         1 H4S       0.036700
    156 HCF         27.1690    -6.9220     0.8590 hc         1 H4S       0.031367
    157 HCFA        27.5660    -5.4380     1.7580 hc         1 H4S       0.031367
    158 HCFB        27.7840    -7.0260     2.5240 hc         1 H4S       0.031367
    159 HOCG        -8.7550    10.7020    -1.5570 ho         1 H4S       0.505000
@<TRIPOS>BOND
     1     1     2 1   
     2     1     5 1   
     3     1    60 1   
     4     2     3 1   
     5     2    61 1   
     6     2    62 1   
     7     3     4 1   
     8     3    14 1   
     9     3    63 1   
    10     4    16 1   
    11     4    18 1   
    12     4    64 1   
    13     5     6 1   
    14     5    10 1   
    15     5    65 1   
    16     6     7 1   
    17     6    11 1   
    18     6    66 1   
    19     7     8 1   
    20     7    12 1   
    21     7    67 1   
    22     8     9 1   
    23     8    59 1   
    24     8    68 1   
    25     9    10 1   
    26     9    13 1   
    27     9    69 1   
    28    10    70 1   
    29    10    71 1   
    30    11    72 1   
    31    12    73 1   
    32    13    74 1   
    33    14    15 1   
    34    14    75 1   
    35    15    17 2   
    36    15    34 1   
    37    16    19 1   
    38    16    20 1   
    39    16    76 1   
    40    18    77 1   
    41    19    78 1   
    42    20    21 1   
    43    20    79 1   
    44    20    80 1   
    45    21    22 1   
    46    21    81 1   
    47    21    82 1   
    48    22    23 1   
    49    22    83 1   
    50    22    84 1   
    51    23    24 1   
    52    23    85 1   
    53    23    86 1   
    54    24    25 1   
    55    24    87 1   
    56    24    88 1   
    57    25    26 1   
    58    25    89 1   
    59    25    90 1   
    60    26    27 1   
    61    26    91 1   
    62    26    92 1   
    63    27    28 1   
    64    27    93 1   
    65    27    94 1   
    66    28    29 1   
    67    28    95 1   
    68    28    96 1   
    69    29    30 1   
    70    29    97 1   
    71    29    98 1   
    72    30    31 1   
    73    30    99 1   
    74    30   100 1   
    75    31    32 1   
    76    31   101 1   
    77    31   102 1   
    78    32    33 1   
    79    32   103 1   
    80    32   104 1   
    81    33   105 1   
    82    33   106 1   
    83    33   107 1   
    84    34    35 1   
    85    34   108 1   
    86    34   109 1   
    87    35    36 1   
    88    35   110 1   
    89    35   111 1   
    90    36    37 1   
    91    36   112 1   
    92    36   113 1   
    93    37    38 1   
    94    37   114 1   
    95    37   115 1   
    96    38    39 1   
    97    38   116 1   
    98    38   117 1   
    99    39    40 1   
   100    39   118 1   
   101    39   119 1   
   102    40    41 1   
   103    40   120 1   
   104    40   121 1   
   105    41    42 1   
   106    41   122 1   
   107    41   123 1   
   108    42    43 1   
   109    42   124 1   
   110    42   125 1   
   111    43    44 1   
   112    43   126 1   
   113    43   127 1   
   114    44    45 1   
   115    44   128 1   
   116    44   129 1   
   117    45    46 1   
   118    45   130 1   
   119    45   131 1   
   120    46    47 1   
   121    46   132 1   
   122    46   133 1   
   123    47    48 1   
   124    47   134 1   
   125    47   135 1   
   126    48    49 1   
   127    48   136 1   
   128    48   137 1   
   129    49    50 1   
   130    49   138 1   
   131    49   139 1   
   132    50    51 1   
   133    50   140 1   
   134    50   141 1   
   135    51    52 1   
   136    51   142 1   
   137    51   143 1   
   138    52    53 1   
   139    52   144 1   
   140    52   145 1   
   141    53    54 1   
   142    53   146 1   
   143    53   147 1   
   144    54    55 1   
   145    54   148 1   
   146    54   149 1   
   147    55    56 1   
   148    55   150 1   
   149    55   151 1   
   150    56    57 1   
   151    56   152 1   
   152    56   153 1   
   153    57    58 1   
   154    57   154 1   
   155    57   155 1   
   156    58   156 1   
   157    58   157 1   
   158    58   158 1   
   159    59   159 1   
@<TRIPOS>SUBSTRUCTURE
     1 H4S         1 TEMP              0 ****  ****    0 ROOT
