@<TRIPOS>MOLECULE
H4S
  159   159     1     0     0
SMALL
bcc


@<TRIPOS>ATOM
      1 NAA         -4.6200     3.2420    -0.8010 n7         1 H4S      -0.822200
      2 CAB         -5.7120     2.3020    -0.9020 c3         1 H4S       0.147800
      3 CAC         -5.3340     0.9370    -0.3120 c3         1 H4S       0.079700
      4 CAD         -6.3770    -0.1560    -0.6000 c3         1 H4S       0.105100
      5 CAE         -4.8870     4.5440    -1.3820 c6         1 H4S       0.196500
      6 CAF         -3.5750     5.3010    -1.5610 c6         1 H4S       0.166100
      7 CAG         -3.7970     6.6600    -2.2370 c6         1 H4S       0.122100
      8 CAH         -4.8900     7.5060    -1.5690 c6         1 H4S       0.086100
      9 CAI         -6.1840     6.7240    -1.2930 c6         1 H4S       0.129100
     10 CAJ         -5.8960     5.3990    -0.6060 c6         1 H4S      -0.099400
     11 OAK         -2.9830     5.4410    -0.2910 oh         1 H4S      -0.582800
     12 OAL         -4.1040     6.3840    -3.5840 oh         1 H4S      -0.582800
     13 OAM         -6.9010     6.4520    -2.4780 oh         1 H4S      -0.584800
     14 NAN         -4.0460     0.4920    -0.7970 ns         1 H4S      -0.552900
     15 CAO         -2.8900     0.7360    -0.1520 c          1 H4S       0.676100
     16 CAP         -7.7830     0.1940    -0.0860 c3         1 H4S       0.113100
     17 OAQ         -2.8390     1.1300     1.0060 o          1 H4S      -0.613100
     18 OAR         -6.4000    -0.4980    -1.9700 oh         1 H4S      -0.593800
     19 OAS         -7.7280     0.6410     1.2520 oh         1 H4S      -0.588800
     20 CAT         -8.7640    -0.9610    -0.2620 c3         1 H4S      -0.108400
     21 CAU        -10.1840    -0.6060     0.1590 c3         1 H4S      -0.073400
     22 CAV        -11.1750    -1.7450    -0.0500 c3         1 H4S      -0.074400
     23 CAW        -12.5880    -1.3770     0.3830 c3         1 H4S      -0.075400
     24 CAX        -13.6000    -2.5030     0.2060 c3         1 H4S      -0.073400
     25 CAY        -15.0020    -2.1110     0.6560 c3         1 H4S      -0.074400
     26 CAZ        -16.0290    -3.2260     0.5090 c3         1 H4S      -0.073400
     27 CBA        -17.4220    -2.8140     0.9690 c3         1 H4S      -0.074400
     28 CBB        -18.4600    -3.9220     0.8460 c3         1 H4S      -0.073400
     29 CBC        -19.8470    -3.4950     1.3120 c3         1 H4S      -0.074400
     30 CBD        -20.8920    -4.5990     1.2050 c3         1 H4S      -0.074400
     31 CBE        -22.2740    -4.1630     1.6750 c3         1 H4S      -0.075400
     32 CBF        -23.3240    -5.2630     1.5740 c3         1 H4S      -0.074400
     33 CBG        -24.6990    -4.8140     2.0470 c3         1 H4S      -0.088100
     34 CBH         -1.6430     0.4840    -0.9740 c3         1 H4S      -0.157400
     35 CBI         -0.3920     0.2700    -0.1380 c3         1 H4S      -0.065400
     36 CBJ          0.8610     0.0940    -0.9870 c3         1 H4S      -0.075400
     37 CBK          2.1160    -0.0680    -0.1390 c3         1 H4S      -0.075400
     38 CBL          3.3920    -0.2360    -0.9550 c3         1 H4S      -0.073400
     39 CBM          4.6360    -0.3500    -0.0820 c3         1 H4S      -0.075400
     40 CBN          5.9280    -0.5200    -0.8720 c3         1 H4S      -0.073400
     41 CBO          7.1600    -0.5980     0.0210 c3         1 H4S      -0.075400
     42 CBP          8.4650    -0.7680    -0.7470 c3         1 H4S      -0.073400
     43 CBQ          9.6860    -0.8220     0.1620 c3         1 H4S      -0.074400
     44 CBR         11.0000    -0.9920    -0.5910 c3         1 H4S      -0.073400
     45 CBS         12.2130    -1.0320     0.3300 c3         1 H4S      -0.074400
     46 CBT         13.5330    -1.1990    -0.4120 c3         1 H4S      -0.074400
     47 CBU         14.7410    -1.2320     0.5160 c3         1 H4S      -0.074400
     48 CBV         16.0660    -1.3960    -0.2190 c3         1 H4S      -0.074400
     49 CBW         17.2700    -1.4220     0.7140 c3         1 H4S      -0.074400
     50 CBX         18.5970    -1.5830    -0.0190 c3         1 H4S      -0.074400
     51 CBY         19.8000    -1.6050     0.9150 c3         1 H4S      -0.074400
     52 CBZ         21.1280    -1.7630     0.1840 c3         1 H4S      -0.074400
     53 CCA         22.3320    -1.7810     1.1180 c3         1 H4S      -0.074400
     54 CCB         23.6580    -1.9370     0.3850 c3         1 H4S      -0.074400
     55 CCC         24.8640    -1.9510     1.3170 c3         1 H4S      -0.074400
     56 CCD         26.1890    -2.1090     0.5820 c3         1 H4S      -0.075400
     57 CCE         27.3990    -2.1160     1.5090 c3         1 H4S      -0.074400
     58 CCF         28.7130    -2.2870     0.7600 c3         1 H4S      -0.088100
     59 OCG         -4.3540     8.0240    -0.3740 oh         1 H4S      -0.578800
     60 HNAA        -4.3280     3.3420     0.1630 hn         1 H4S       0.387800
     61 HAB         -6.6320     2.6420    -0.4070 h1         1 H4S       0.031700
     62 HABA        -5.9560     2.1950    -1.9660 h1         1 H4S       0.031700
     63 HAC         -5.2480     1.0380     0.7690 h1         1 H4S       0.094700
     64 HAD         -6.0390    -1.0620    -0.0830 h1         1 H4S       0.081700
     65 HAE         -5.2820     4.3620    -2.3860 h1         1 H4S       0.079700
     66 HAF         -2.9280     4.7050    -2.2220 h1         1 H4S       0.056700
     67 HAG         -2.8570     7.2340    -2.1710 h1         1 H4S       0.041700
     68 HAH         -5.1340     8.3350    -2.2580 h1         1 H4S       0.013700
     69 HAI         -6.8000     7.3410    -0.6180 h1         1 H4S       0.024700
     70 HAJ         -6.8350     4.8560    -0.4750 hc         1 H4S       0.061700
     71 HAJA        -5.5120     5.6010     0.3960 hc         1 H4S       0.061700
     72 HOAK        -2.1620     5.9340    -0.3850 ho         1 H4S       0.406000
     73 HOAL        -4.2600     7.2140    -4.0430 ho         1 H4S       0.402000
     74 HOAM        -7.0400     7.2790    -2.9500 ho         1 H4S       0.397000
     75 HNAN        -3.9920     0.2470    -1.7740 hn         1 H4S       0.314500
     76 HAP         -8.1610     1.0490    -0.6610 h1         1 H4S       0.069700
     77 HOAR        -6.8300     0.2070    -2.4660 ho         1 H4S       0.403000
     78 HOAS        -7.4950    -0.1070     1.8140 ho         1 H4S       0.406000
     79 HAT         -8.7640    -1.2710    -1.3100 hc         1 H4S       0.050700
     80 HATA        -8.4090    -1.8280     0.3110 hc         1 H4S       0.050700
     81 HAU        -10.1970    -0.3110     1.2120 hc         1 H4S       0.044200
     82 HAUA       -10.5200     0.2710    -0.4070 hc         1 H4S       0.044200
     83 HAV        -11.1790    -2.0390    -1.1050 hc         1 H4S       0.037700
     84 HAVA       -10.8400    -2.6270     0.5080 hc         1 H4S       0.037700
     85 HAW        -12.5720    -1.0710     1.4350 hc         1 H4S       0.038200
     86 HAWA       -12.9220    -0.4990    -0.1800 hc         1 H4S       0.038200
     87 HAX        -13.6250    -2.8100    -0.8450 hc         1 H4S       0.037700
     88 HAXA       -13.2690    -3.3820     0.7710 hc         1 H4S       0.037700
     89 HAY        -14.9670    -1.7900     1.7020 hc         1 H4S       0.037200
     90 HAYA       -15.3340    -1.2360     0.0850 hc         1 H4S       0.037200
     91 HAZ        -16.0710    -3.5490    -0.5370 hc         1 H4S       0.037700
     92 HAZA       -15.7010    -4.1010     1.0820 hc         1 H4S       0.037700
     93 HBA        -17.3730    -2.4810     2.0110 hc         1 H4S       0.036700
     94 HBAA       -17.7510    -1.9430     0.3910 hc         1 H4S       0.036700
     95 HBB        -18.5140    -4.2570    -0.1960 hc         1 H4S       0.037200
     96 HBBA       -18.1330    -4.7920     1.4260 hc         1 H4S       0.037200
     97 HBC        -19.7880    -3.1540     2.3520 hc         1 H4S       0.036700
     98 HBCA       -20.1740    -2.6270     0.7290 hc         1 H4S       0.036700
     99 HBD        -20.9530    -4.9410     0.1660 hc         1 H4S       0.036700
    100 HBDA       -20.5660    -5.4660     1.7890 hc         1 H4S       0.036700
    101 HBE        -22.2110    -3.8180     2.7130 hc         1 H4S       0.036700
    102 HBEA       -22.6000    -3.2960     1.0890 hc         1 H4S       0.036700
    103 HBF        -23.3880    -5.6070     0.5370 hc         1 H4S       0.036700
    104 HBFA       -22.9980    -6.1290     2.1590 hc         1 H4S       0.036700
    105 HBG        -24.6740    -4.5000     3.0920 hc         1 H4S       0.031367
    106 HBGA       -25.0600    -3.9680     1.4590 hc         1 H4S       0.031367
    107 HBGB       -25.4350    -5.6140     1.9600 hc         1 H4S       0.031367
    108 HBH         -1.8050    -0.3620    -1.6480 hc         1 H4S       0.056200
    109 HBHA        -1.5110     1.3570    -1.6240 hc         1 H4S       0.056200
    110 HBI         -0.2520     1.1190     0.5350 hc         1 H4S       0.053700
    111 HBIA        -0.5210    -0.6080     0.5030 hc         1 H4S       0.053700
    112 HBJ          0.7450    -0.7750    -1.6430 hc         1 H4S       0.035200
    113 HBJA         0.9790     0.9590    -1.6490 hc         1 H4S       0.035200
    114 HBK          2.2210     0.8050     0.5160 hc         1 H4S       0.039200
    115 HBKA         1.9960    -0.9290     0.5270 hc         1 H4S       0.039200
    116 HBL          3.3060    -1.1250    -1.5900 hc         1 H4S       0.036700
    117 HBLA         3.5050     0.6140    -1.6370 hc         1 H4S       0.036700
    118 HBM          4.7150     0.5420     0.5490 hc         1 H4S       0.037700
    119 HBMA         4.5190    -1.1950     0.6060 hc         1 H4S       0.037700
    120 HBN          5.8650    -1.4240    -1.4880 hc         1 H4S       0.036700
    121 HBNA         6.0400     0.3160    -1.5720 hc         1 H4S       0.036700
    122 HBO          7.2180     0.3090     0.6340 hc         1 H4S       0.037200
    123 HBOA         7.0440    -1.4290     0.7260 hc         1 H4S       0.037200
    124 HBP          8.4170    -1.6820    -1.3500 hc         1 H4S       0.037200
    125 HBPA         8.5790     0.0580    -1.4580 hc         1 H4S       0.037200
    126 HBQ          9.7290     0.0930     0.7630 hc         1 H4S       0.036700
    127 HBQA         9.5690    -1.6460     0.8760 hc         1 H4S       0.036700
    128 HBR         10.9640    -1.9110    -1.1850 hc         1 H4S       0.037200
    129 HBRA        11.1170    -0.1720    -1.3080 hc         1 H4S       0.037200
    130 HBS         12.2460    -0.1120     0.9250 hc         1 H4S       0.036700
    131 HBSA        12.0950    -1.8510     1.0480 hc         1 H4S       0.036700
    132 HBT         13.5050    -2.1220    -1.0030 hc         1 H4S       0.036700
    133 HBTA        13.6520    -0.3820    -1.1320 hc         1 H4S       0.036700
    134 HBU         14.7670    -0.3090     1.1080 hc         1 H4S       0.036700
    135 HBUA        14.6230    -2.0490     1.2360 hc         1 H4S       0.036700
    136 HBV         16.0430    -2.3190    -0.8090 hc         1 H4S       0.037200
    137 HBVA        16.1840    -0.5800    -0.9400 hc         1 H4S       0.037200
    138 HBW         17.2910    -0.4990     1.3040 hc         1 H4S       0.037200
    139 HBWA        17.1520    -2.2390     1.4340 hc         1 H4S       0.037200
    140 HBX         18.5780    -2.5070    -0.6080 hc         1 H4S       0.037200
    141 HBXA        18.7140    -0.7670    -0.7410 hc         1 H4S       0.037200
    142 HBY         19.8180    -0.6820     1.5060 hc         1 H4S       0.036700
    143 HBYA        19.6840    -2.4220     1.6370 hc         1 H4S       0.036700
    144 HBZ         21.1110    -2.6870    -0.4040 hc         1 H4S       0.037200
    145 HBZA        21.2430    -0.9470    -0.5380 hc         1 H4S       0.037200
    146 HCA         22.3480    -0.8570     1.7070 hc         1 H4S       0.036700
    147 HCAA        22.2170    -2.5970     1.8400 hc         1 H4S       0.036700
    148 HCB         23.6430    -2.8630    -0.2010 hc         1 H4S       0.036700
    149 HCBA        23.7710    -1.1220    -0.3390 hc         1 H4S       0.036700
    150 HCC         24.8810    -1.0240     1.9020 hc         1 H4S       0.036700
    151 HCCA        24.7520    -2.7650     2.0420 hc         1 H4S       0.036700
    152 HCD         26.1740    -3.0380     0.0010 hc         1 H4S       0.036700
    153 HCDA        26.2990    -1.2990    -0.1480 hc         1 H4S       0.036700
    154 HCE         27.4200    -1.1850     2.0820 hc         1 H4S       0.036700
    155 HCEA        27.2870    -2.9210     2.2420 hc         1 H4S       0.036700
    156 HCF         28.7330    -3.2310     0.2120 hc         1 H4S       0.031367
    157 HCFA        28.8620    -1.4840     0.0350 hc         1 H4S       0.031367
    158 HCFB        29.5680    -2.2820     1.4380 hc         1 H4S       0.031367
    159 HOCG        -4.9980     8.6320     0.0040 ho         1 H4S       0.406000
@<TRIPOS>BOND
     1     1     2 1   
     2     1     5 1   
     3     1    60 1   
     4     2     3 1   
     5     2    61 1   
     6     2    62 1   
     7     3     4 1   
     8     3    14 1   
     9     3    63 1   
    10     4    16 1   
    11     4    18 1   
    12     4    64 1   
    13     5     6 1   
    14     5    10 1   
    15     5    65 1   
    16     6     7 1   
    17     6    11 1   
    18     6    66 1   
    19     7     8 1   
    20     7    12 1   
    21     7    67 1   
    22     8     9 1   
    23     8    59 1   
    24     8    68 1   
    25     9    10 1   
    26     9    13 1   
    27     9    69 1   
    28    10    70 1   
    29    10    71 1   
    30    11    72 1   
    31    12    73 1   
    32    13    74 1   
    33    14    15 1   
    34    14    75 1   
    35    15    17 2   
    36    15    34 1   
    37    16    19 1   
    38    16    20 1   
    39    16    76 1   
    40    18    77 1   
    41    19    78 1   
    42    20    21 1   
    43    20    79 1   
    44    20    80 1   
    45    21    22 1   
    46    21    81 1   
    47    21    82 1   
    48    22    23 1   
    49    22    83 1   
    50    22    84 1   
    51    23    24 1   
    52    23    85 1   
    53    23    86 1   
    54    24    25 1   
    55    24    87 1   
    56    24    88 1   
    57    25    26 1   
    58    25    89 1   
    59    25    90 1   
    60    26    27 1   
    61    26    91 1   
    62    26    92 1   
    63    27    28 1   
    64    27    93 1   
    65    27    94 1   
    66    28    29 1   
    67    28    95 1   
    68    28    96 1   
    69    29    30 1   
    70    29    97 1   
    71    29    98 1   
    72    30    31 1   
    73    30    99 1   
    74    30   100 1   
    75    31    32 1   
    76    31   101 1   
    77    31   102 1   
    78    32    33 1   
    79    32   103 1   
    80    32   104 1   
    81    33   105 1   
    82    33   106 1   
    83    33   107 1   
    84    34    35 1   
    85    34   108 1   
    86    34   109 1   
    87    35    36 1   
    88    35   110 1   
    89    35   111 1   
    90    36    37 1   
    91    36   112 1   
    92    36   113 1   
    93    37    38 1   
    94    37   114 1   
    95    37   115 1   
    96    38    39 1   
    97    38   116 1   
    98    38   117 1   
    99    39    40 1   
   100    39   118 1   
   101    39   119 1   
   102    40    41 1   
   103    40   120 1   
   104    40   121 1   
   105    41    42 1   
   106    41   122 1   
   107    41   123 1   
   108    42    43 1   
   109    42   124 1   
   110    42   125 1   
   111    43    44 1   
   112    43   126 1   
   113    43   127 1   
   114    44    45 1   
   115    44   128 1   
   116    44   129 1   
   117    45    46 1   
   118    45   130 1   
   119    45   131 1   
   120    46    47 1   
   121    46   132 1   
   122    46   133 1   
   123    47    48 1   
   124    47   134 1   
   125    47   135 1   
   126    48    49 1   
   127    48   136 1   
   128    48   137 1   
   129    49    50 1   
   130    49   138 1   
   131    49   139 1   
   132    50    51 1   
   133    50   140 1   
   134    50   141 1   
   135    51    52 1   
   136    51   142 1   
   137    51   143 1   
   138    52    53 1   
   139    52   144 1   
   140    52   145 1   
   141    53    54 1   
   142    53   146 1   
   143    53   147 1   
   144    54    55 1   
   145    54   148 1   
   146    54   149 1   
   147    55    56 1   
   148    55   150 1   
   149    55   151 1   
   150    56    57 1   
   151    56   152 1   
   152    56   153 1   
   153    57    58 1   
   154    57   154 1   
   155    57   155 1   
   156    58   156 1   
   157    58   157 1   
   158    58   158 1   
   159    59   159 1   
@<TRIPOS>SUBSTRUCTURE
     1 H4S         1 TEMP              0 ****  ****    0 ROOT
