@<TRIPOS>MOLECULE
H4T
   34    36     1     0     0
SMALL
bcc


@<TRIPOS>ATOM
      1 C2           1.3120     1.1240    -0.7770 ca         1 H4T       0.187100
      2 C3           2.5830     1.4950    -0.3510 ca         1 H4T      -0.229000
      3 C4           3.3760     0.5530     0.2810 ca         1 H4T       0.084400
      4 C6           2.9450    -0.7430     0.5100 ca         1 H4T      -0.160000
      5 C7           1.6750    -1.0780     0.0700 ca         1 H4T       0.094400
      6 C15         -3.7350     0.0630     0.3600 cy         1 H4T      -0.093000
      7 C16         -5.2200    -0.2980     0.5290 cy         1 H4T      -0.077400
      8 C17         -5.5310     1.1990     0.7210 cy         1 H4T      -0.093400
      9 C18         -4.1630     1.5270     0.0920 cy         1 H4T      -0.077400
     10 C19         -2.9070    -0.6430    -0.7000 c5         1 H4T       0.117000
     11 O1           0.4780     1.9730    -1.3920 oh         1 H4T      -0.478100
     12 CL5          4.9560     1.0130     0.8100 cl         1 H4T      -0.094400
     13 CL8          1.0900    -2.6800     0.3560 cl         1 H4T      -0.081400
     14 C9           0.8430    -0.1730    -0.5670 ca         1 H4T      -0.177600
     15 C10         -0.5010    -0.5710    -1.1100 c          1 H4T       0.706700
     16 O11         -0.5980    -1.0410    -2.2350 o          1 H4T      -0.585100
     17 N12         -1.5340    -0.3670    -0.2960 n          1 H4T      -0.467800
     18 C13         -1.4580     0.1660     1.0640 c5         1 H4T       0.107000
     19 C14         -2.8610    -0.0810     1.6020 c5         1 H4T      -0.080400
     20 H1           2.9460     2.5020    -0.5140 ha         1 H4T       0.154000
     21 H2           3.5730    -1.4660     1.0110 ha         1 H4T       0.168000
     22 H3          -5.6470    -0.6830    -0.3990 hc         1 H4T       0.053700
     23 H4          -5.4740    -0.9840     1.3380 hc         1 H4T       0.053700
     24 H5          -6.4160     1.5930     0.2220 hc         1 H4T       0.049700
     25 H6          -5.5800     1.4780     1.7740 hc         1 H4T       0.049700
     26 H7          -3.5690     2.3170     0.5550 hc         1 H4T       0.053700
     27 H8          -4.2450     1.7340    -0.9760 hc         1 H4T       0.053700
     28 H9          -3.1000    -1.7220    -0.6950 h1         1 H4T       0.059700
     29 H10         -3.1060    -0.2720    -1.7060 h1         1 H4T       0.059700
     30 H11          0.8730     2.8490    -1.4740 ho         1 H4T       0.434000
     31 H12         -0.6930    -0.3410     1.6530 h1         1 H4T       0.048200
     32 H13         -1.2200     1.2330     1.0480 h1         1 H4T       0.048200
     33 H14         -3.1190     0.6110     2.4040 hc         1 H4T       0.056700
     34 H15         -2.9390    -1.0980     1.9980 hc         1 H4T       0.056700
@<TRIPOS>BOND
     1     1     2 ar  
     2     1    11 1   
     3     1    14 ar  
     4     2     3 ar  
     5     2    20 1   
     6     3     4 ar  
     7     3    12 1   
     8     4     5 ar  
     9     4    21 1   
    10     5    13 1   
    11     5    14 ar  
    12     6     7 1   
    13     6     9 1   
    14     6    10 1   
    15     6    19 1   
    16     7     8 1   
    17     7    22 1   
    18     7    23 1   
    19     8     9 1   
    20     8    24 1   
    21     8    25 1   
    22     9    26 1   
    23     9    27 1   
    24    10    17 1   
    25    10    28 1   
    26    10    29 1   
    27    11    30 1   
    28    14    15 1   
    29    15    16 2   
    30    15    17 1   
    31    17    18 1   
    32    18    19 1   
    33    18    31 1   
    34    18    32 1   
    35    19    33 1   
    36    19    34 1   
@<TRIPOS>SUBSTRUCTURE
     1 H4T         1 TEMP              0 ****  ****    0 ROOT
