@<TRIPOS>MOLECULE
H4T
   34    36     1     0     0
SMALL
No Charge or Current Charge


@<TRIPOS>ATOM
      1 C2           1.3750     1.2170    -0.9200 ca         1 H4T       0.187100
      2 C3           2.6390     1.5600    -0.4160 ca         1 H4T      -0.211000
      3 C4           3.3600     0.6370     0.3550 ca         1 H4T       0.176000
      4 C6           2.8230    -0.6290     0.6220 ca         1 H4T      -0.142000
      5 C7           1.5600    -0.9730     0.1200 ca         1 H4T       0.186000
      6 C15         -3.7550    -0.0250     0.3720 cy         1 H4T      -0.093000
      7 C16         -5.3140    -0.2090     0.4530 cy         1 H4T      -0.077400
      8 C17         -5.3820     1.2920     0.8770 cy         1 H4T      -0.093400
      9 C18         -4.1080     1.4640    -0.0080 cy         1 H4T      -0.077400
     10 C19         -2.9530    -0.8800    -0.6520 c5         1 H4T       0.117000
     11 O1           0.6750     2.1310    -1.6510 oh         1 H4T      -0.517100
     12 Cl5          4.9430     1.0700     0.9840 cl         1 H4T      -0.186000
     13 Cl8          0.9330    -2.5890     0.4470 cl         1 H4T      -0.173000
     14 C9           0.8260    -0.0490    -0.6490 ca         1 H4T      -0.177600
     15 C10         -0.5200    -0.4140    -1.1850 c          1 H4T       0.639700
     16 O11         -0.6830    -0.6840    -2.3690 o          1 H4T      -0.585100
     17 N12         -1.5750    -0.5070    -0.2570 n          1 H4T      -0.400800
     18 C13         -1.4880     0.0360     1.1110 c5         1 H4T       0.107000
     19 C14         -2.8980    -0.2950     1.6400 c5         1 H4T      -0.080400
     20 H1           3.0680     2.5390    -0.6130 ha         1 H4T       0.136000
     21 H2           3.3880    -1.3440     1.2120 ha         1 H4T       0.150000
     22 H3          -5.7980    -0.4300    -0.5070 hc         1 H4T       0.053700
     23 H4          -5.6740    -0.9310     1.1940 hc         1 H4T       0.053700
     24 H5          -6.2700     1.8430     0.5500 hc         1 H4T       0.049700
     25 H6          -5.2290     1.4760     1.9470 hc         1 H4T       0.049700
     26 H7          -3.3980     2.2300     0.3220 hc         1 H4T       0.053700
     27 H8          -4.3150     1.6260    -1.0730 hc         1 H4T       0.053700
     28 H9          -3.1100    -1.9600    -0.5330 h1         1 H4T       0.059700
     29 H10         -3.1740    -0.6180    -1.6960 h1         1 H4T       0.059700
     30 H11          1.2190     2.9420    -1.7410 ho         1 H4T       0.473000
     31 H12         -0.7050    -0.4450     1.7100 h1         1 H4T       0.048200
     32 H13         -1.3010     1.1180     1.0900 h1         1 H4T       0.048200
     33 H14         -3.1640     0.3280     2.5020 hc         1 H4T       0.056700
     34 H15         -2.9640    -1.3390     1.9690 hc         1 H4T       0.056700
@<TRIPOS>BOND
     1     1     2 ar  
     2     1    11 1   
     3     1    14 ar  
     4     2     3 ar  
     5     2    20 1   
     6     3     4 ar  
     7     3    12 1   
     8     4     5 ar  
     9     4    21 1   
    10     5    13 1   
    11     5    14 ar  
    12     6     7 1   
    13     6     9 1   
    14     6    10 1   
    15     6    19 1   
    16     7     8 1   
    17     7    22 1   
    18     7    23 1   
    19     8     9 1   
    20     8    24 1   
    21     8    25 1   
    22     9    26 1   
    23     9    27 1   
    24    10    17 1   
    25    10    28 1   
    26    10    29 1   
    27    11    30 1   
    28    14    15 1   
    29    15    16 2   
    30    15    17 1   
    31    17    18 1   
    32    18    19 1   
    33    18    31 1   
    34    18    32 1   
    35    19    33 1   
    36    19    34 1   
@<TRIPOS>SUBSTRUCTURE
     1 H4T         1 TEMP              0 ****  ****    0 ROOT
