@<TRIPOS>MOLECULE
H4U
   58    60     1     0     0
SMALL
No Charge or Current Charge


@<TRIPOS>ATOM
      1 C10          3.0520    -2.5880    30.2080 ca         1 H4U      -0.127900
      2 C13          2.5910    -0.0680    27.4730 c3         1 H4U      -0.068400
      3 C15          3.5520     1.7430    29.1120 c3         1 H4U       0.163600
      4 C17          5.9940     1.7730    28.8170 ca         1 H4U       0.143100
      5 C20          8.6160     1.8210    29.8340 ca         1 H4U      -0.146000
      6 C21          8.3870     1.3920    28.5130 ca         1 H4U      -0.050300
      7 C22          9.5420     0.9200    27.6430 c3         1 H4U      -0.033100
      8 C24         10.8900    -1.1510    26.8550 c3         1 H4U      -0.104700
      9 C01          6.5870    -1.9210    29.9200 c3         1 H4U      -0.085100
     10 C02          5.3830    -1.5900    30.8270 c3         1 H4U      -0.130700
     11 C03          4.3180    -2.6870    30.8470 ca         1 H4U       0.179300
     12 N04          4.6300    -3.7740    31.5860 nb         1 H4U      -0.283000
     13 C05          3.6960    -4.7300    31.6780 ca         1 H4U       0.401900
     14 N06          4.0220    -5.8110    32.4210 nv         1 H4U      -1.046900
     15 N07          2.4750    -4.7400    31.1380 nb         1 H4U      -0.322000
     16 C08          2.1610    -3.6660    30.4070 ca         1 H4U       0.399900
     17 N09          0.9140    -3.6840    29.8640 nv         1 H4U      -1.061900
     18 O11          2.6630    -1.4970    29.4440 os         1 H4U      -0.355100
     19 C12          3.3330    -1.2130    28.2030 c3         1 H4U       0.147600
     20 C14          2.3440     1.2270    28.2990 c3         1 H4U      -0.068400
     21 O16          4.7260     1.6920    28.2830 os         1 H4U      -0.353100
     22 C18          6.2320     2.2050    30.1400 ca         1 H4U      -0.192000
     23 C19          7.5430     2.2290    30.6430 ca         1 H4U      -0.076000
     24 C23          9.7090    -0.6160    27.6990 c3         1 H4U      -0.068400
     25 C25         10.7440    -0.9060    25.3760 cc         1 H4U       0.395800
     26 N26          9.9440    -1.5430    24.5470 nd         1 H4U      -0.388000
     27 N27         10.1410    -0.9810    23.3070 nd         1 H4U      -0.043000
     28 N28         11.0310    -0.0260    23.3440 nc         1 H4U      -0.204800
     29 N29         11.4160     0.0270    24.6430 na         1 H4U      -0.218700
     30 C30          7.0720     1.3770    28.0110 ca         1 H4U      -0.138000
     31 H132         3.1670     0.1890    26.5770 hc         1 H4U       0.050200
     32 H131         1.6260    -0.4450    27.1140 hc         1 H4U       0.050200
     33 H152         3.3610     2.7660    29.4640 h1         1 H4U       0.038200
     34 H151         3.6750     1.0990    29.9910 h1         1 H4U       0.038200
     35 H201         9.6270     1.8320    30.2360 ha         1 H4U       0.111000
     36 H221        10.4770     1.3970    27.9630 hc         1 H4U       0.048700
     37 H222         9.3760     1.2340    26.6050 hc         1 H4U       0.048700
     38 H242        11.8240    -0.7030    27.2150 hc         1 H4U       0.061700
     39 H241        10.9840    -2.2300    27.0270 hc         1 H4U       0.061700
     40 H012         7.3070    -1.0940    29.9260 hc         1 H4U       0.039367
     41 H011         7.1020    -2.8230    30.2700 hc         1 H4U       0.039367
     42 H013         6.2680    -2.0890    28.8850 hc         1 H4U       0.039367
     43 H021         5.7540    -1.4230    31.8460 hc         1 H4U       0.056700
     44 H022         4.9520    -0.6340    30.5210 hc         1 H4U       0.056700
     45 H062         4.8360    -5.7530    33.0280 hn         1 H4U       0.482500
     46 H061         3.2820    -6.4490    32.7020 hn         1 H4U       0.482500
     47 H092         0.2320    -4.3360    30.2430 hn         1 H4U       0.491000
     48 H091         0.5580    -2.8120    29.4820 hn         1 H4U       0.491000
     49 H121         4.3730    -0.9160    28.3720 h1         1 H4U       0.038700
     50 H122         3.3400    -2.1010    27.5590 h1         1 H4U       0.038700
     51 H142         2.0120     2.0190    27.6170 hc         1 H4U       0.051200
     52 H141         1.5140     1.0550    28.9950 hc         1 H4U       0.051200
     53 H181         5.4170     2.5230    30.7840 ha         1 H4U       0.118000
     54 H191         7.7280     2.5600    31.6630 ha         1 H4U       0.111000
     55 H231         9.8570    -0.9170    28.7440 hc         1 H4U       0.061700
     56 H232         8.7790    -1.0940    27.3650 hc         1 H4U       0.061700
     57 H291        12.1110     0.6830    24.9800 hn         1 H4U       0.384000
     58 H301         6.8800     1.0360    26.9970 ha         1 H4U       0.131000
@<TRIPOS>BOND
     1     1    11 ar  
     2     1    16 ar  
     3     1    18 1   
     4     2    19 1   
     5     2    20 1   
     6     2    31 1   
     7     2    32 1   
     8     3    20 1   
     9     3    21 1   
    10     3    33 1   
    11     3    34 1   
    12     4    21 1   
    13     4    22 ar  
    14     4    30 ar  
    15     5     6 ar  
    16     5    23 ar  
    17     5    35 1   
    18     6     7 1   
    19     6    30 ar  
    20     7    24 1   
    21     7    36 1   
    22     7    37 1   
    23     8    24 1   
    24     8    25 1   
    25     8    38 1   
    26     8    39 1   
    27     9    10 1   
    28     9    40 1   
    29     9    41 1   
    30     9    42 1   
    31    10    11 1   
    32    10    43 1   
    33    10    44 1   
    34    11    12 ar  
    35    12    13 ar  
    36    13    14 1   
    37    13    15 ar  
    38    14    45 1   
    39    14    46 1   
    40    15    16 ar  
    41    16    17 1   
    42    17    47 1   
    43    17    48 1   
    44    18    19 1   
    45    19    49 1   
    46    19    50 1   
    47    20    51 1   
    48    20    52 1   
    49    22    23 ar  
    50    22    53 1   
    51    23    54 1   
    52    24    55 1   
    53    24    56 1   
    54    25    26 2   
    55    25    29 1   
    56    26    27 1   
    57    27    28 2   
    58    28    29 1   
    59    29    57 1   
    60    30    58 1   
@<TRIPOS>SUBSTRUCTURE
     1 H4U         1 TEMP              0 ****  ****    0 ROOT
