@<TRIPOS>MOLECULE
H4U
   58    60     1     0     0
SMALL
bcc


@<TRIPOS>ATOM
      1 C10          3.1320    -2.5530    30.2500 ca         1 H4U      -0.258500
      2 C13          2.6320    -0.0520    27.6420 c3         1 H4U      -0.068400
      3 C15          3.6400     1.7920    29.1200 c3         1 H4U       0.140400
      4 C17          5.9840     1.8830    28.7380 ca         1 H4U       0.143100
      5 C20          8.6160     1.9040    29.6450 ca         1 H4U      -0.164000
      6 C21          8.3360     1.4540    28.3540 ca         1 H4U      -0.050300
      7 C22          9.4310     0.9100    27.4800 c3         1 H4U      -0.033100
      8 C24         10.7540    -1.1810    26.8610 c3         1 H4U      -0.104700
      9 C01          6.4790    -1.5520    30.6810 c3         1 H4U      -0.085100
     10 C02          5.1130    -1.4380    31.3560 c3         1 H4U      -0.130700
     11 C03          4.2380    -2.6230    31.0680 ca         1 H4U       0.507600
     12 N04          4.6040    -3.7740    31.6510 nb         1 H4U      -0.809000
     13 C05          3.8550    -4.8410    31.4020 ca         1 H4U       0.927900
     14 N06          4.2560    -6.0210    31.9450 nv         1 H4U      -0.936500
     15 N07          2.7590    -4.8790    30.6420 nb         1 H4U      -0.848000
     16 C08          2.3950    -3.7440    30.0590 ca         1 H4U       0.728200
     17 N09          1.3130    -3.7590    29.2560 nv         1 H4U      -0.951500
     18 O11          2.7060    -1.4120    29.6300 os         1 H4U      -0.331900
     19 C12          3.3660    -1.1430    28.3930 c3         1 H4U       0.124400
     20 C14          2.4210     1.2620    28.3950 c3         1 H4U      -0.068400
     21 O16          4.7380     1.8310    28.2210 os         1 H4U      -0.329900
     22 C18          6.2690     2.3350    30.0240 ca         1 H4U      -0.210000
     23 C19          7.5880     2.3410    30.4640 ca         1 H4U      -0.094000
     24 C23          9.6020    -0.5970    27.6760 c3         1 H4U      -0.068400
     25 C25         10.5450    -1.0570    25.3950 cc         1 H4U       0.395800
     26 N26          9.4790    -1.4000    24.7090 nd         1 H4U      -0.388000
     27 N27          9.7420    -1.1130    23.4330 nd         1 H4U      -0.043000
     28 N28         10.9080    -0.6150    23.3040 nc         1 H4U      -0.204800
     29 N29         11.4250    -0.5700    24.5200 na         1 H4U      -0.168400
     30 C30          7.0210     1.4500    27.9110 ca         1 H4U      -0.156000
     31 H132         3.1980     0.1320    26.7270 hc         1 H4U       0.050200
     32 H131         1.6570    -0.4280    27.3200 hc         1 H4U       0.050200
     33 H152         3.4320     2.7900    29.5220 h1         1 H4U       0.038200
     34 H151         3.8810     1.1470    29.9720 h1         1 H4U       0.038200
     35 H201         9.6380     1.9120    30.0030 ha         1 H4U       0.129000
     36 H221        10.3750     1.4110    27.7110 hc         1 H4U       0.048700
     37 H222         9.2080     1.1250    26.4320 hc         1 H4U       0.048700
     38 H242        11.6930    -0.6940    27.1310 hc         1 H4U       0.061700
     39 H241        10.8710    -2.2400    27.1020 hc         1 H4U       0.061700
     40 H012         7.0960    -0.6860    30.9200 hc         1 H4U       0.039367
     41 H011         7.0060    -2.4470    31.0110 hc         1 H4U       0.039367
     42 H013         6.3830    -1.5990    29.5960 hc         1 H4U       0.039367
     43 H021         5.2510    -1.3770    32.4380 hc         1 H4U       0.056700
     44 H022         4.6260    -0.5130    31.0500 hc         1 H4U       0.056700
     45 H062         4.9050    -5.9740    32.7120 hn         1 H4U       0.427300
     46 H061         3.5750    -6.7590    32.0010 hn         1 H4U       0.427300
     47 H092         0.7130    -4.5660    29.2890 hn         1 H4U       0.435800
     48 H091         0.8810    -2.8890    28.9940 hn         1 H4U       0.435800
     49 H121         4.4050    -0.8550    28.5870 h1         1 H4U       0.038700
     50 H122         3.3950    -2.0490    27.7780 h1         1 H4U       0.038700
     51 H142         2.0510     2.0100    27.6900 hc         1 H4U       0.051200
     52 H141         1.6370     1.1450    29.1470 hc         1 H4U       0.051200
     53 H181         5.4870     2.6850    30.6840 ha         1 H4U       0.136000
     54 H191         7.8070     2.6950    31.4630 ha         1 H4U       0.129000
     55 H231         9.7970    -0.8060    28.7300 hc         1 H4U       0.061700
     56 H232         8.6720    -1.1110    27.4220 hc         1 H4U       0.061700
     57 H291        12.3540    -0.2040    24.6790 hn         1 H4U       0.333700
     58 H301         6.7860     1.0930    26.9140 ha         1 H4U       0.149000
@<TRIPOS>BOND
     1     1    11 ar  
     2     1    16 ar  
     3     1    18 1   
     4     2    19 1   
     5     2    20 1   
     6     2    31 1   
     7     2    32 1   
     8     3    20 1   
     9     3    21 1   
    10     3    33 1   
    11     3    34 1   
    12     4    21 1   
    13     4    22 ar  
    14     4    30 ar  
    15     5     6 ar  
    16     5    23 ar  
    17     5    35 1   
    18     6     7 1   
    19     6    30 ar  
    20     7    24 1   
    21     7    36 1   
    22     7    37 1   
    23     8    24 1   
    24     8    25 1   
    25     8    38 1   
    26     8    39 1   
    27     9    10 1   
    28     9    40 1   
    29     9    41 1   
    30     9    42 1   
    31    10    11 1   
    32    10    43 1   
    33    10    44 1   
    34    11    12 ar  
    35    12    13 ar  
    36    13    14 1   
    37    13    15 ar  
    38    14    45 1   
    39    14    46 1   
    40    15    16 ar  
    41    16    17 1   
    42    17    47 1   
    43    17    48 1   
    44    18    19 1   
    45    19    49 1   
    46    19    50 1   
    47    20    51 1   
    48    20    52 1   
    49    22    23 ar  
    50    22    53 1   
    51    23    54 1   
    52    24    55 1   
    53    24    56 1   
    54    25    26 2   
    55    25    29 1   
    56    26    27 1   
    57    27    28 2   
    58    28    29 1   
    59    29    57 1   
    60    30    58 1   
@<TRIPOS>SUBSTRUCTURE
     1 H4U         1 TEMP              0 ****  ****    0 ROOT
