@<TRIPOS>MOLECULE
H4V
   39    40     1     0     0
SMALL
No Charge or Current Charge


@<TRIPOS>ATOM
      1 I01          4.2040    -1.4770    -1.4550 i          1 H4V      -0.178800
      2 C02          3.3590     0.3620    -0.7110 ca         1 H4V       0.269800
      3 N03          2.0750     0.3450    -0.3110 nb         1 H4V      -0.182000
      4 C04          1.5930     1.5140     0.1530 ca         1 H4V       0.307900
      5 N05          0.2460     1.5660     0.5490 ns         1 H4V      -0.315900
      6 C06         -0.5770     0.5730     1.0230 c          1 H4V       0.693100
      7 N07         -1.8220     1.0280     1.2790 ns         1 H4V      -0.587300
      8 S08         -3.1520     0.1100     1.6940 sy         1 H4V       1.191300
      9 C09         -3.3780    -1.0450     0.3120 ca         1 H4V      -0.251500
     10 C10         -3.8760    -0.6260    -0.9610 ca         1 H4V      -0.041600
     11 C11         -4.1860     0.8180    -1.3090 c          1 H4V       0.615700
     12 O12         -5.3900     0.9640    -1.9510 os         1 H4V      -0.416100
     13 C13         -5.7910     2.2890    -2.3470 c3         1 H4V       0.150900
     14 O14         -3.4210     1.7490    -1.0850 o          1 H4V      -0.504000
     15 C15         -4.0800    -1.6000    -1.9650 ca         1 H4V      -0.090000
     16 C16         -3.7830    -2.9510    -1.7350 ca         1 H4V      -0.063000
     17 C17         -3.2750    -3.3540    -0.4930 ca         1 H4V      -0.107000
     18 C18         -3.0750    -2.4100     0.5260 ca         1 H4V       0.001000
     19 O19         -2.7770    -0.6470     2.8940 o          1 H4V      -0.521000
     20 O20         -4.2760     1.0520     1.7160 o          1 H4V      -0.521000
     21 O21         -0.2310    -0.5820     1.2000 o          1 H4V      -0.537100
     22 N22          2.2400     2.6900     0.2360 nb         1 H4V      -0.322000
     23 C23          3.5270     2.6940    -0.1690 ca         1 H4V       0.388300
     24 O24          4.2840     3.8430    -0.1200 os         1 H4V      -0.446300
     25 C25          3.7280     5.0810     0.3690 c3         1 H4V       0.158900
     26 C26          4.1340     1.5290    -0.6560 ca         1 H4V      -0.247000
     27 H1          -0.1620     2.4890     0.5050 hn         1 H4V       0.179000
     28 H2          -2.0880     1.9600     1.0140 hn         1 H4V       0.357500
     29 H3          -5.8720     2.9500    -1.4740 h1         1 H4V       0.054367
     30 H4          -5.0670     2.7250    -3.0470 h1         1 H4V       0.054367
     31 H5          -6.7680     2.2590    -2.8430 h1         1 H4V       0.054367
     32 H6          -4.4610    -1.3030    -2.9410 ha         1 H4V       0.128000
     33 H7          -3.9410    -3.6850    -2.5230 ha         1 H4V       0.123000
     34 H8          -3.0400    -4.4010    -0.3160 ha         1 H4V       0.127000
     35 H9          -2.6860    -2.7530     1.4840 ha         1 H4V       0.157000
     36 H10          2.8710     5.3940    -0.2410 h1         1 H4V       0.053033
     37 H11          3.3950     4.9770     1.4100 h1         1 H4V       0.053033
     38 H12          4.4810     5.8790     0.3320 h1         1 H4V       0.053033
     39 H13          5.1690     1.5340    -0.9820 ha         1 H4V       0.162000
@<TRIPOS>BOND
     1     1     2 1   
     2     2     3 ar  
     3     2    26 ar  
     4     3     4 ar  
     5     4     5 1   
     6     4    22 ar  
     7     5     6 1   
     8     5    27 1   
     9     6     7 1   
    10     6    21 2   
    11     7     8 1   
    12     7    28 1   
    13     8     9 1   
    14     8    19 2   
    15     8    20 2   
    16     9    10 ar  
    17     9    18 ar  
    18    10    11 1   
    19    10    15 ar  
    20    11    12 1   
    21    11    14 2   
    22    12    13 1   
    23    13    29 1   
    24    13    30 1   
    25    13    31 1   
    26    15    16 ar  
    27    15    32 1   
    28    16    17 ar  
    29    16    33 1   
    30    17    18 ar  
    31    17    34 1   
    32    18    35 1   
    33    22    23 ar  
    34    23    24 1   
    35    23    26 ar  
    36    24    25 1   
    37    25    36 1   
    38    25    37 1   
    39    25    38 1   
    40    26    39 1   
@<TRIPOS>SUBSTRUCTURE
     1 H4V         1 TEMP              0 ****  ****    0 ROOT
