@<TRIPOS>MOLECULE
H4V
   39    40     1     0     0
SMALL
abcg2


@<TRIPOS>ATOM
      1 I01          4.3990    -1.5910    -0.4820 i          1 H4V      -0.178800
      2 C02          3.5150     0.2990    -0.1760 ca         1 H4V       0.269800
      3 N03          2.2360     0.2880     0.1480 nb         1 H4V      -0.182000
      4 C04          1.6950     1.4750     0.3400 ca         1 H4V       0.307900
      5 N05          0.3630     1.5830     0.6780 ns         1 H4V      -0.315900
      6 C06         -0.5190     0.5740     0.9690 c          1 H4V       0.693100
      7 N07         -1.8000     1.0710     1.1660 ns         1 H4V      -0.587300
      8 S08         -3.0870     0.0730     1.5320 sy         1 H4V       1.191300
      9 C09         -3.2960    -0.9990     0.1320 ca         1 H4V      -0.251500
     10 C10         -3.9480    -0.5600    -1.0240 ca         1 H4V      -0.041600
     11 C11         -4.3080     0.8690    -1.2720 c          1 H4V       0.615700
     12 O12         -5.5460     0.9850    -1.7010 os         1 H4V      -0.416100
     13 C13         -5.9970     2.2960    -2.0640 c3         1 H4V       0.150900
     14 O14         -3.5360     1.7850    -1.1470 o          1 H4V      -0.504000
     15 C15         -4.1950    -1.4820    -2.0340 ca         1 H4V      -0.090000
     16 C16         -3.7840    -2.8010    -1.9050 ca         1 H4V      -0.063000
     17 C17         -3.1360    -3.2200    -0.7560 ca         1 H4V      -0.107000
     18 C18         -2.9020    -2.3190     0.2740 ca         1 H4V       0.001000
     19 O19         -2.7240    -0.7320     2.6760 o          1 H4V      -0.521000
     20 O20         -4.2300     0.9620     1.6090 o          1 H4V      -0.521000
     21 O21         -0.2600    -0.5990     1.0620 o          1 H4V      -0.537100
     22 N22          2.3070     2.6490     0.2280 nb         1 H4V      -0.322000
     23 C23          3.5810     2.6270    -0.1030 ca         1 H4V       0.388300
     24 O24          4.2470     3.7530    -0.2370 os         1 H4V      -0.446300
     25 C25          3.5620     4.9860    -0.0170 c3         1 H4V       0.158900
     26 C26          4.2780     1.4280    -0.3250 ca         1 H4V      -0.247000
     27 H1           0.0450     2.5370     0.7690 hn         1 H4V       0.179000
     28 H2          -2.0650     1.9780     0.7980 hn         1 H4V       0.357500
     29 H3          -5.9550     2.9740    -1.2140 h1         1 H4V       0.054367
     30 H4          -5.4050     2.7010    -2.8840 h1         1 H4V       0.054367
     31 H5          -7.0270     2.1750    -2.3840 h1         1 H4V       0.054367
     32 H6          -4.6980    -1.1670    -2.9380 ha         1 H4V       0.128000
     33 H7          -3.9780    -3.5020    -2.7060 ha         1 H4V       0.123000
     34 H8          -2.8200    -4.2480    -0.6470 ha         1 H4V       0.127000
     35 H9          -2.4230    -2.6570     1.1810 ha         1 H4V       0.157000
     36 H10          2.7280     5.1070    -0.7070 h1         1 H4V       0.053033
     37 H11          3.1930     5.0580     1.0060 h1         1 H4V       0.053033
     38 H12          4.2970     5.7650    -0.1940 h1         1 H4V       0.053033
     39 H13          5.3240     1.4170    -0.5910 ha         1 H4V       0.162000
@<TRIPOS>BOND
     1     1     2 1   
     2     2     3 ar  
     3     2    26 ar  
     4     3     4 ar  
     5     4     5 1   
     6     4    22 ar  
     7     5     6 1   
     8     5    27 1   
     9     6     7 1   
    10     6    21 2   
    11     7     8 1   
    12     7    28 1   
    13     8     9 1   
    14     8    19 2   
    15     8    20 2   
    16     9    10 ar  
    17     9    18 ar  
    18    10    11 1   
    19    10    15 ar  
    20    11    12 1   
    21    11    14 2   
    22    12    13 1   
    23    13    29 1   
    24    13    30 1   
    25    13    31 1   
    26    15    16 ar  
    27    15    32 1   
    28    16    17 ar  
    29    16    33 1   
    30    17    18 ar  
    31    17    34 1   
    32    18    35 1   
    33    22    23 ar  
    34    23    24 1   
    35    23    26 ar  
    36    24    25 1   
    37    25    36 1   
    38    25    37 1   
    39    25    38 1   
    40    26    39 1   
@<TRIPOS>SUBSTRUCTURE
     1 H4V         1 TEMP              0 ****  ****    0 ROOT
