@<TRIPOS>MOLECULE
H4W
   57    59     1     0     0
SMALL
No Charge or Current Charge


@<TRIPOS>ATOM
      1 F23          8.4550     0.9920     2.5070 f          1 H4W      -0.182000
      2 C23          7.9070     1.0140     1.2730 ca         1 H4W       0.171000
      3 C22          6.9350     0.0640     0.9240 ca         1 H4W      -0.151000
      4 C21          6.3600     0.0800    -0.3610 ca         1 H4W      -0.050300
      5 C26          6.7680     1.0600    -1.2880 ca         1 H4W      -0.125000
      6 C25          7.7430     2.0110    -0.9370 ca         1 H4W      -0.083000
      7 C24          8.3150     1.9870     0.3470 ca         1 H4W      -0.154000
      8 C14          5.3000    -0.9440    -0.7420 c3         1 H4W      -0.034100
      9 C13          3.8770    -0.4660    -0.3830 c3         1 H4W      -0.073400
     10 C12          2.7800    -1.4880    -0.7590 c3         1 H4W      -0.074400
     11 C11          1.3570    -1.0060    -0.3990 c3         1 H4W      -0.081400
     12 C10          0.2660    -2.0260    -0.7740 c3         1 H4W       0.164600
     13 O09         -1.0010    -1.4620    -0.3970 os         1 H4W      -0.459000
     14 C3          -2.1920    -2.2470    -0.6810 c5         1 H4W       0.169300
     15 C2          -2.2830    -3.4450     0.3380 c5         1 H4W       0.112800
     16 N1          -3.3800    -3.1090     1.2920 n7         1 H4W      -0.856400
     17 C5          -3.5170    -1.6390     1.2090 c5         1 H4W       0.147800
     18 C4          -3.4470    -1.3920    -0.3190 c5         1 H4W      -0.053700
     19 C08         -3.4150     0.0970    -0.7600 c3         1 H4W      -0.114700
     20 C06         -4.6840     0.8600    -0.4150 ca         1 H4W       0.396300
     21 N01         -5.6830     0.8130    -1.3240 nb         1 H4W      -0.753000
     22 C02         -6.7960     1.4660    -1.0250 ca         1 H4W       0.601900
     23 N02         -7.6990     1.3490    -2.0000 nv         1 H4W      -1.057900
     24 C03         -7.0120     2.1980     0.1440 ca         1 H4W      -0.234000
     25 C04         -5.9810     2.2560     1.0930 ca         1 H4W       0.000700
     26 C07         -6.1440     3.0270     2.3930 c3         1 H4W      -0.052800
     27 C05         -4.7940     1.5660     0.7990 ca         1 H4W      -0.219000
     28 H1           6.6280    -0.6810     1.6540 ha         1 H4W       0.130000
     29 H2           6.3280     1.0860    -2.2830 ha         1 H4W       0.116000
     30 H3           8.0540     2.7640    -1.6590 ha         1 H4W       0.116000
     31 H4           9.0680     2.7190     0.6250 ha         1 H4W       0.131000
     32 H5           5.3490    -1.1560    -1.8170 hc         1 H4W       0.048700
     33 H6           5.4990    -1.8960    -0.2340 hc         1 H4W       0.048700
     34 H7           3.8280    -0.2630     0.6940 hc         1 H4W       0.045200
     35 H8           3.6780     0.4830    -0.8970 hc         1 H4W       0.045200
     36 H9           2.8300    -1.6900    -1.8360 hc         1 H4W       0.038200
     37 H10          2.9800    -2.4360    -0.2440 hc         1 H4W       0.038200
     38 H11          1.3040    -0.8070     0.6790 hc         1 H4W       0.052700
     39 H12          1.1540    -0.0600    -0.9140 hc         1 H4W       0.052700
     40 H13          0.2970    -2.2170    -1.8540 h1         1 H4W       0.020200
     41 H14          0.4530    -2.9710    -0.2480 h1         1 H4W       0.020200
     42 H15         -2.1850    -2.5660    -1.7330 h1         1 H4W       0.044700
     43 H16         -2.4980    -4.3920    -0.1750 h1         1 H4W       0.040200
     44 H17         -1.3390    -3.5760     0.8830 h1         1 H4W       0.040200
     45 H18         -3.1370    -3.4010     2.2480 hn         1 H4W       0.414000
     46 H20         -4.4640    -1.2940     1.6480 h1         1 H4W       0.040200
     47 H21         -2.6920    -1.1350     1.7340 h1         1 H4W       0.040200
     48 H22         -4.3290    -1.8320    -0.7990 hc         1 H4W       0.080700
     49 H23         -2.5600     0.6060    -0.2990 hc         1 H4W       0.063700
     50 H24         -3.2370     0.1500    -1.8410 hc         1 H4W       0.063700
     51 H25         -7.3310     0.9990    -2.8760 hn         1 H4W       0.469000
     52 H26         -8.4190     2.0600    -2.0620 hn         1 H4W       0.469000
     53 H27         -7.9570     2.7050     0.3110 ha         1 H4W       0.118000
     54 H28         -6.5150     2.3720     3.1900 hc         1 H4W       0.046033
     55 H29         -5.1900     3.4530     2.7250 hc         1 H4W       0.046033
     56 H30         -6.8540     3.8540     2.2800 hc         1 H4W       0.046033
     57 H31         -3.9650     1.5730     1.5000 ha         1 H4W       0.121000
@<TRIPOS>BOND
     1     1     2 1   
     2     2     3 ar  
     3     2     7 ar  
     4     3     4 ar  
     5     3    28 1   
     6     4     5 ar  
     7     4     8 1   
     8     5     6 ar  
     9     5    29 1   
    10     6     7 ar  
    11     6    30 1   
    12     7    31 1   
    13     8     9 1   
    14     8    32 1   
    15     8    33 1   
    16     9    10 1   
    17     9    34 1   
    18     9    35 1   
    19    10    11 1   
    20    10    36 1   
    21    10    37 1   
    22    11    12 1   
    23    11    38 1   
    24    11    39 1   
    25    12    13 1   
    26    12    40 1   
    27    12    41 1   
    28    13    14 1   
    29    14    15 1   
    30    14    18 1   
    31    14    42 1   
    32    15    16 1   
    33    15    43 1   
    34    15    44 1   
    35    16    17 1   
    36    16    45 1   
    37    17    18 1   
    38    17    46 1   
    39    17    47 1   
    40    18    19 1   
    41    18    48 1   
    42    19    20 1   
    43    19    49 1   
    44    19    50 1   
    45    20    21 ar  
    46    20    27 ar  
    47    21    22 ar  
    48    22    23 1   
    49    22    24 ar  
    50    23    51 1   
    51    23    52 1   
    52    24    25 ar  
    53    24    53 1   
    54    25    26 1   
    55    25    27 ar  
    56    26    54 1   
    57    26    55 1   
    58    26    56 1   
    59    27    57 1   
@<TRIPOS>SUBSTRUCTURE
     1 H4W         1 TEMP              0 ****  ****    0 ROOT
