@<TRIPOS>MOLECULE
H4W
   57    59     1     0     0
SMALL
bcc


@<TRIPOS>ATOM
      1 F23          8.6410     1.5540     1.8190 f          1 H4W      -0.146900
      2 C23          8.0280     1.2760     0.6540 ca         1 H4W       0.135900
      3 C22          7.0690     0.2810     0.6320 ca         1 H4W      -0.169000
      4 C21          6.4290    -0.0240    -0.5660 ca         1 H4W      -0.050300
      5 C26          6.7760     0.6870    -1.7130 ca         1 H4W      -0.143000
      6 C25          7.7410     1.6830    -1.6650 ca         1 H4W      -0.101000
      7 C24          8.3830     1.9920    -0.4720 ca         1 H4W      -0.172000
      8 C14          5.3430    -1.0620    -0.6040 c3         1 H4W      -0.034100
      9 C13          3.9610    -0.4440    -0.3880 c3         1 H4W      -0.073400
     10 C12          2.8410    -1.4750    -0.4270 c3         1 H4W      -0.074400
     11 C11          1.4660    -0.8470    -0.2350 c3         1 H4W      -0.081400
     12 C10          0.3530    -1.8740    -0.3070 c3         1 H4W       0.141400
     13 O09         -0.8830    -1.2290    -0.1070 os         1 H4W      -0.412600
     14 C3          -2.0000    -2.0200    -0.4120 c5         1 H4W       0.146100
     15 C2          -2.2190    -3.1950     0.5510 c5         1 H4W       0.112800
     16 N1          -3.6590    -3.3640     0.5140 n7         1 H4W      -0.801200
     17 C5          -4.1870    -2.0180     0.6480 c5         1 H4W       0.147800
     18 C4          -3.3170    -1.2030    -0.3160 c5         1 H4W      -0.053700
     19 C08         -3.1520     0.2500     0.1290 c3         1 H4W      -0.114700
     20 C06         -4.4750     0.9640     0.1250 ca         1 H4W       0.461600
     21 N01         -5.0130     1.1980    -1.0750 nb         1 H4W      -0.753000
     22 C02         -6.1920     1.8060    -1.1380 ca         1 H4W       0.667200
     23 N02         -6.7340     1.9820    -2.3790 nv         1 H4W      -0.947500
     24 C03         -6.8880     2.2190     0.0120 ca         1 H4W      -0.317300
     25 C04         -6.3340     1.9780     1.2520 ca         1 H4W       0.000700
     26 C07         -7.0410     2.3790     2.5110 c3         1 H4W      -0.052800
     27 C05         -5.0930     1.3320     1.3060 ca         1 H4W      -0.302300
     28 H1           6.8260    -0.2560     1.5420 ha         1 H4W       0.148000
     29 H2           6.2880     0.4580    -2.6530 ha         1 H4W       0.134000
     30 H3           8.0010     2.2280    -2.5630 ha         1 H4W       0.134000
     31 H4           9.1390     2.7640    -0.4220 ha         1 H4W       0.149000
     32 H5           5.3600    -1.5800    -1.5670 hc         1 H4W       0.048700
     33 H6           5.5250    -1.8190     0.1630 hc         1 H4W       0.048700
     34 H7           3.9470     0.0810     0.5720 hc         1 H4W       0.045200
     35 H8           3.7840     0.3160    -1.1560 hc         1 H4W       0.045200
     36 H9           2.8710    -2.0080    -1.3840 hc         1 H4W       0.038200
     37 H10          3.0130    -2.2290     0.3480 hc         1 H4W       0.038200
     38 H11          1.4290    -0.3350     0.7320 hc         1 H4W       0.052700
     39 H12          1.3020    -0.0850    -1.0030 hc         1 H4W       0.052700
     40 H13          0.3700    -2.3740    -1.2870 h1         1 H4W       0.020200
     41 H14          0.5170    -2.6560     0.4480 h1         1 H4W       0.020200
     42 H15         -1.8970    -2.4110    -1.4340 h1         1 H4W       0.044700
     43 H16         -1.7040    -4.1070     0.2420 h1         1 H4W       0.040200
     44 H17         -1.8380    -2.9140     1.5470 h1         1 H4W       0.040200
     45 H18         -3.9850    -3.9760     1.2500 hn         1 H4W       0.358800
     46 H20         -5.2480    -1.9770     0.3960 h1         1 H4W       0.040200
     47 H21         -4.0790    -1.6200     1.6710 h1         1 H4W       0.040200
     48 H22         -3.7890    -1.1950    -1.3010 hc         1 H4W       0.080700
     49 H23         -2.7210     0.2890     1.1310 hc         1 H4W       0.063700
     50 H24         -2.4660     0.7710    -0.5420 hc         1 H4W       0.063700
     51 H25         -6.0980     1.9210    -3.1560 hn         1 H4W       0.413800
     52 H26         -7.4480     2.6830    -2.4830 hn         1 H4W       0.413800
     53 H27         -7.8430     2.7220    -0.0820 ha         1 H4W       0.136000
     54 H28         -7.4130     1.4990     3.0390 hc         1 H4W       0.046033
     55 H29         -6.3670     2.8980     3.1930 hc         1 H4W       0.046033
     56 H30         -7.8900     3.0290     2.3080 hc         1 H4W       0.046033
     57 H31         -4.6190     1.1250     2.2570 ha         1 H4W       0.139000
@<TRIPOS>BOND
     1     1     2 1   
     2     2     3 ar  
     3     2     7 ar  
     4     3     4 ar  
     5     3    28 1   
     6     4     5 ar  
     7     4     8 1   
     8     5     6 ar  
     9     5    29 1   
    10     6     7 ar  
    11     6    30 1   
    12     7    31 1   
    13     8     9 1   
    14     8    32 1   
    15     8    33 1   
    16     9    10 1   
    17     9    34 1   
    18     9    35 1   
    19    10    11 1   
    20    10    36 1   
    21    10    37 1   
    22    11    12 1   
    23    11    38 1   
    24    11    39 1   
    25    12    13 1   
    26    12    40 1   
    27    12    41 1   
    28    13    14 1   
    29    14    15 1   
    30    14    18 1   
    31    14    42 1   
    32    15    16 1   
    33    15    43 1   
    34    15    44 1   
    35    16    17 1   
    36    16    45 1   
    37    17    18 1   
    38    17    46 1   
    39    17    47 1   
    40    18    19 1   
    41    18    48 1   
    42    19    20 1   
    43    19    49 1   
    44    19    50 1   
    45    20    21 ar  
    46    20    27 ar  
    47    21    22 ar  
    48    22    23 1   
    49    22    24 ar  
    50    23    51 1   
    51    23    52 1   
    52    24    25 ar  
    53    24    53 1   
    54    25    26 1   
    55    25    27 ar  
    56    26    54 1   
    57    26    55 1   
    58    26    56 1   
    59    27    57 1   
@<TRIPOS>SUBSTRUCTURE
     1 H4W         1 TEMP              0 ****  ****    0 ROOT
