@<TRIPOS>MOLECULE
H4Y
   37    39     1     0     0
SMALL
bcc


@<TRIPOS>ATOM
      1 N1           1.5740     1.0490    -0.3450 n          1 H4Y      -0.411000
      2 C4          -1.3970    -1.5440    -0.7350 ca         1 H4Y      -0.076500
      3 C5          -0.4710    -0.9280     0.0990 cp         1 H4Y      -0.077000
      4 C6           0.9620    -1.2780     0.0220 cp         1 H4Y      -0.026000
      5 C7           1.3650    -2.6090     0.1250 ca         1 H4Y      -0.117000
      6 C8           2.7050    -2.9610     0.0720 ca         1 H4Y      -0.128000
      7 C10          3.2900    -0.6530    -0.2160 ca         1 H4Y      -0.120000
      8 C13          0.4790     2.9200    -1.2010 c5         1 H4Y      -0.092400
      9 C15          1.8510     2.0290     0.5470 c          1 H4Y       0.706500
     10 C17         -2.2870     0.3270     1.0920 ca         1 H4Y      -0.196000
     11 C1          -5.4610    -0.5150    -0.4620 c3         1 H4Y       0.125700
     12 C2          -3.2050    -0.2900     0.2380 ca         1 H4Y       0.143100
     13 C3          -2.7510    -1.2360    -0.6770 ca         1 H4Y      -0.196000
     14 C9           3.6730    -1.9800    -0.0910 ca         1 H4Y      -0.120000
     15 C11          1.9460    -0.3010    -0.1650 ca         1 H4Y       0.064600
     16 C12          0.9940     1.5340    -1.5890 c5         1 H4Y       0.106000
     17 C14          1.4020     3.3390    -0.0610 c5         1 H4Y      -0.167400
     18 O2           2.3770     1.8620     1.6330 o          1 H4Y      -0.616500
     19 C16         -0.9450     0.0110     1.0200 ca         1 H4Y      -0.076500
     20 H1          -1.0620    -2.2740    -1.4620 ha         1 H4Y       0.139000
     21 H2           0.6150    -3.3770     0.2700 ha         1 H4Y       0.135000
     22 H3           2.9920    -4.0000     0.1660 ha         1 H4Y       0.133000
     23 H4           4.0350     0.1170    -0.3710 ha         1 H4Y       0.141000
     24 H5           0.4880     3.6100    -2.0420 hc         1 H4Y       0.058700
     25 H6          -0.5470     2.8410    -0.8400 hc         1 H4Y       0.058700
     26 H7          -2.6380     1.0510     1.8170 ha         1 H4Y       0.140500
     27 H8          -5.2660    -0.3260    -1.5210 h1         1 H4Y       0.040700
     28 H9          -5.5260    -1.5940    -0.3030 h1         1 H4Y       0.040700
     29 H10         -6.4150    -0.0660    -0.1980 h1         1 H4Y       0.040700
     30 H11         -3.4280    -1.7400    -1.3530 ha         1 H4Y       0.140500
     31 H12          4.7210    -2.2440    -0.1290 ha         1 H4Y       0.134000
     32 H13          1.7580     1.5820    -2.3700 h1         1 H4Y       0.050700
     33 H14          0.1990     0.8720    -1.9340 h1         1 H4Y       0.050700
     34 H15          2.2890     3.8650    -0.4280 hc         1 H4Y       0.076200
     35 H16          0.9300     3.9780     0.6840 hc         1 H4Y       0.076200
     36 H17         -0.2610     0.4860     1.7120 ha         1 H4Y       0.139000
     37 O1          -4.4900     0.0850     0.3720 os         1 H4Y      -0.317900
@<TRIPOS>BOND
     1     1     9 1   
     2     1    15 1   
     3     1    16 1   
     4     2     3 ar  
     5     2    13 ar  
     6     2    20 1   
     7     3     4 1   
     8     3    19 ar  
     9     4     5 ar  
    10     4    15 ar  
    11     5     6 ar  
    12     5    21 1   
    13     6    14 ar  
    14     6    22 1   
    15     7    14 ar  
    16     7    15 ar  
    17     7    23 1   
    18     8    16 1   
    19     8    17 1   
    20     8    24 1   
    21     8    25 1   
    22     9    17 1   
    23     9    18 2   
    24    10    12 ar  
    25    10    19 ar  
    26    10    26 1   
    27    11    27 1   
    28    11    28 1   
    29    11    29 1   
    30    11    37 1   
    31    12    13 ar  
    32    12    37 1   
    33    13    30 1   
    34    14    31 1   
    35    16    32 1   
    36    16    33 1   
    37    17    34 1   
    38    17    35 1   
    39    19    36 1   
@<TRIPOS>SUBSTRUCTURE
     1 H4Y         1 TEMP              0 ****  ****    0 ROOT
