@<TRIPOS>MOLECULE
H4Y
   37    39     1     0     0
SMALL
No Charge or Current Charge


@<TRIPOS>ATOM
      1 N1           1.7360     1.0830    -0.5040 n          1 H4Y      -0.251400
      2 C4          -1.3630    -1.5470    -0.8980 ca         1 H4Y      -0.058500
      3 C5          -0.4330    -0.9200    -0.0360 cp         1 H4Y      -0.077000
      4 C6           1.0210    -1.2530    -0.1070 cp         1 H4Y      -0.026000
      5 C7           1.3870    -2.6000     0.1400 ca         1 H4Y      -0.099000
      6 C8           2.7300    -2.9870     0.2750 ca         1 H4Y      -0.110000
      7 C10          3.4220    -0.6830    -0.0540 ca         1 H4Y      -0.102000
      8 C13          0.2460     2.9100    -0.7930 c5         1 H4Y      -0.092400
      9 C15          2.2050     2.1090     0.3320 c          1 H4Y       0.564000
     10 C17         -2.2890     0.3100     0.9910 ca         1 H4Y      -0.178000
     11 C1          -5.5470    -0.5320    -0.6130 c3         1 H4Y       0.148900
     12 C2          -3.2010    -0.3040     0.1190 ca         1 H4Y       0.143100
     13 C3          -2.7340    -1.2410    -0.8290 ca         1 H4Y      -0.178000
     14 C9           3.7470    -2.0240     0.2020 ca         1 H4Y      -0.102000
     15 C11          2.0860    -0.3090    -0.2950 ca         1 H4Y      -0.028000
     16 C12          0.6770     1.5590    -1.4410 c5         1 H4Y       0.106000
     17 C14          1.6080     3.3930    -0.2380 c5         1 H4Y      -0.167400
     18 O2           2.7680     1.9440     1.4080 o          1 H4Y      -0.541000
     19 C16         -0.9200     0.0020     0.9200 ca         1 H4Y      -0.058500
     20 H1          -1.0120    -2.2680    -1.6330 ha         1 H4Y       0.121000
     21 H2           0.6090    -3.3480     0.2730 ha         1 H4Y       0.117000
     22 H3           2.9790    -4.0260     0.4770 ha         1 H4Y       0.115000
     23 H4           4.2160     0.0580    -0.1120 ha         1 H4Y       0.123000
     24 H5          -0.1990     3.6050    -1.5150 hc         1 H4Y       0.058700
     25 H6          -0.4800     2.7530     0.0120 hc         1 H4Y       0.058700
     26 H7          -2.6450     1.0260     1.7260 ha         1 H4Y       0.122500
     27 H8          -5.3490    -0.3030    -1.6680 h1         1 H4Y       0.040700
     28 H9          -5.5890    -1.6220    -0.4900 h1         1 H4Y       0.040700
     29 H10         -6.5310    -0.1230    -0.3550 h1         1 H4Y       0.040700
     30 H11         -3.4130    -1.7380    -1.5150 ha         1 H4Y       0.122500
     31 H12          4.7850    -2.3160     0.3450 ha         1 H4Y       0.116000
     32 H13          1.1200     1.7310    -2.4310 h1         1 H4Y       0.050700
     33 H14         -0.1690     0.8830    -1.5870 h1         1 H4Y       0.050700
     34 H15          2.2280     3.7130    -1.0830 hc         1 H4Y       0.076200
     35 H16          1.5570     4.1890     0.5130 hc         1 H4Y       0.076200
     36 H17         -0.2260     0.4810     1.6080 ha         1 H4Y       0.121000
     37 O1          -4.5330     0.0390     0.2330 os         1 H4Y      -0.341100
@<TRIPOS>BOND
     1     1     9 1   
     2     1    15 1   
     3     1    16 1   
     4     2     3 ar  
     5     2    13 ar  
     6     2    20 1   
     7     3     4 1   
     8     3    19 ar  
     9     4     5 ar  
    10     4    15 ar  
    11     5     6 ar  
    12     5    21 1   
    13     6    14 ar  
    14     6    22 1   
    15     7    14 ar  
    16     7    15 ar  
    17     7    23 1   
    18     8    16 1   
    19     8    17 1   
    20     8    24 1   
    21     8    25 1   
    22     9    17 1   
    23     9    18 2   
    24    10    12 ar  
    25    10    19 ar  
    26    10    26 1   
    27    11    27 1   
    28    11    28 1   
    29    11    29 1   
    30    11    37 1   
    31    12    13 ar  
    32    12    37 1   
    33    13    30 1   
    34    14    31 1   
    35    16    32 1   
    36    16    33 1   
    37    17    34 1   
    38    17    35 1   
    39    19    36 1   
@<TRIPOS>SUBSTRUCTURE
     1 H4Y         1 TEMP              0 ****  ****    0 ROOT
