@<TRIPOS>MOLECULE
H50
   31    33     1     0     0
SMALL
bcc


@<TRIPOS>ATOM
      1 CAL         -5.2150     1.7390     0.2050 cx         1 H50      -0.119900
      2 CAM         -5.2290     0.9230    -1.0410 cx         1 H50      -0.119900
      3 CAU         -4.4640     0.4370     0.1630 cx         1 H50      -0.211700
      4 CAN         -5.0570    -0.7490     0.9280 c          1 H50       0.958600
      5 OAB         -6.2990    -0.7930     1.0160 o          1 H50      -0.820800
      6 OAA         -4.2440    -1.5670     1.3940 o          1 H50      -0.820800
      7 CAS         -2.9770     0.4850     0.1070 ca         1 H50       0.078700
      8 CAJ         -2.2860    -0.2990    -0.8130 ca         1 H50      -0.152000
      9 CAO         -0.9090    -0.2680    -0.8430 ca         1 H50       0.142900
     10 FAC         -0.2770    -1.0170    -1.7640 f          1 H50      -0.160900
     11 CAH         -2.2400     1.2870     0.9740 ca         1 H50      -0.147000
     12 CAI         -0.8560     1.3040     0.9250 ca         1 H50      -0.096000
     13 CAT         -0.1490     0.5190     0.0150 cp         1 H50      -0.138000
     14 CAR          1.3250     0.5590    -0.0390 cp         1 H50       0.021000
     15 CAK          2.0820    -0.6100    -0.0450 ca         1 H50      -0.098000
     16 CAQ          3.4660    -0.5520    -0.0660 ca         1 H50       0.026400
     17 CL1          4.3680    -2.0200    -0.0590 cl         1 H50      -0.099400
     18 CAP          4.1180     0.6760    -0.0840 ca         1 H50       0.012400
     19 CL2          5.8360     0.7630    -0.1180 cl         1 H50      -0.106400
     20 CAF          3.3720     1.8450    -0.0750 ca         1 H50      -0.122000
     21 CAG          1.9890     1.7850    -0.0530 ca         1 H50      -0.120000
     22 H1          -4.6350     2.6540     0.2020 hc         1 H50       0.059950
     23 H2          -6.1140     1.7770     0.8070 hc         1 H50       0.059950
     24 H3          -6.1380     0.3940    -1.3000 hc         1 H50       0.059950
     25 H4          -4.6570     1.2810    -1.8880 hc         1 H50       0.059950
     26 H6          -2.8220    -0.9200    -1.5200 ha         1 H50       0.155000
     27 H7          -2.7550     1.9070     1.6980 ha         1 H50       0.136000
     28 H8          -0.3040     1.9290     1.6180 ha         1 H50       0.117000
     29 H9           1.6020    -1.5780    -0.0040 ha         1 H50       0.164000
     30 H10          3.8740     2.8030    -0.0930 ha         1 H50       0.139000
     31 H11          1.4220     2.7060    -0.0590 ha         1 H50       0.141000
@<TRIPOS>BOND
     1     1     2 1   
     2     1     3 1   
     3     1    22 1   
     4     1    23 1   
     5     2     3 1   
     6     2    24 1   
     7     2    25 1   
     8     3     4 1   
     9     3     7 1   
    10     4     5 1   
    11     4     6 1   
    12     7     8 ar  
    13     7    11 ar  
    14     8     9 ar  
    15     8    26 1   
    16     9    10 1   
    17     9    13 ar  
    18    11    12 ar  
    19    11    27 1   
    20    12    13 ar  
    21    12    28 1   
    22    13    14 1   
    23    14    15 ar  
    24    14    21 ar  
    25    15    16 ar  
    26    15    29 1   
    27    16    17 1   
    28    16    18 ar  
    29    18    19 1   
    30    18    20 ar  
    31    20    21 ar  
    32    20    30 1   
    33    21    31 1   
@<TRIPOS>SUBSTRUCTURE
     1 H50         1 TEMP              0 ****  ****    0 ROOT
