@<TRIPOS>MOLECULE
H50
   31    33     1     0     0
SMALL
No Charge or Current Charge


@<TRIPOS>ATOM
      1 CAL         -5.2800     1.7870     0.1270 cx         1 H50      -0.119900
      2 CAM         -5.3220     0.8400    -1.0450 cx         1 H50      -0.119900
      3 CAU         -4.4980     0.4850     0.1820 cx         1 H50      -0.211700
      4 CAN         -5.0190    -0.6170     1.0890 c          1 H50       0.748000
      5 OAB         -5.2210    -1.7190     0.5980 o          1 H50      -0.715500
      6 OAA         -5.1880    -0.3600     2.2720 o          1 H50      -0.715500
      7 CAS         -2.9970     0.4980     0.1170 ca         1 H50       0.078700
      8 CAJ         -2.3220    -0.2570    -0.8570 ca         1 H50      -0.134000
      9 CAO         -0.9200    -0.2460    -0.9190 ca         1 H50       0.178000
     10 FAC         -0.3180    -0.9630    -1.8940 f          1 H50      -0.196000
     11 CAH         -2.2520     1.2650     1.0290 ca         1 H50      -0.129000
     12 CAI         -0.8480     1.2790     0.9680 ca         1 H50      -0.078000
     13 CAT         -0.1500     0.5210    -0.0040 cp         1 H50      -0.138000
     14 CAR          1.3450     0.5510    -0.0490 cp         1 H50       0.021000
     15 CAK          2.1040    -0.6360    -0.2050 ca         1 H50      -0.080000
     16 CAQ          3.5090    -0.6020    -0.2370 ca         1 H50       0.118000
     17 Cl1          4.3970    -2.1140    -0.4330 cl         1 H50      -0.191000
     18 CAP          4.1850     0.6280    -0.1080 ca         1 H50       0.104000
     19 Cl2          5.9480     0.7100    -0.1440 cl         1 H50      -0.198000
     20 CAF          3.4510     1.8140     0.0540 ca         1 H50      -0.104000
     21 CAG          2.0460     1.7740     0.0860 ca         1 H50      -0.102000
     22 H1          -4.7240     2.7140     0.0060 hc         1 H50       0.059950
     23 H2          -6.1760     1.8730     0.7380 hc         1 H50       0.059950
     24 H3          -6.2460     0.2930    -1.2170 hc         1 H50       0.059950
     25 H4          -4.7940     1.1350    -1.9490 hc         1 H50       0.059950
     26 H6          -2.8850    -0.8510    -1.5700 ha         1 H50       0.137000
     27 H7          -2.7630     1.8500     1.7890 ha         1 H50       0.118000
     28 H8          -0.2950     1.8750     1.6910 ha         1 H50       0.099000
     29 H9           1.5990    -1.5940    -0.2890 ha         1 H50       0.146000
     30 H10          3.9700     2.7640     0.1550 ha         1 H50       0.121000
     31 H11          1.4920     2.7030     0.2060 ha         1 H50       0.123000
@<TRIPOS>BOND
     1     1     2 1   
     2     1     3 1   
     3     1    22 1   
     4     1    23 1   
     5     2     3 1   
     6     2    24 1   
     7     2    25 1   
     8     3     4 1   
     9     3     7 1   
    10     4     5 1   
    11     4     6 1   
    12     7     8 ar  
    13     7    11 ar  
    14     8     9 ar  
    15     8    26 1   
    16     9    10 1   
    17     9    13 ar  
    18    11    12 ar  
    19    11    27 1   
    20    12    13 ar  
    21    12    28 1   
    22    13    14 1   
    23    14    15 ar  
    24    14    21 ar  
    25    15    16 ar  
    26    15    29 1   
    27    16    17 1   
    28    16    18 ar  
    29    18    19 1   
    30    18    20 ar  
    31    20    21 ar  
    32    20    30 1   
    33    21    31 1   
@<TRIPOS>SUBSTRUCTURE
     1 H50         1 TEMP              0 ****  ****    0 ROOT
