@<TRIPOS>MOLECULE
H52
   43    45     1     0     0
SMALL
No Charge or Current Charge


@<TRIPOS>ATOM
      1 O1           9.0340    11.6710     4.2200 o          1 H52      -0.547500
      2 S5           8.8220    10.2230     4.1060 sy         1 H52       1.215600
      3 O2           8.7520     9.3950     5.3140 o          1 H52      -0.547500
      4 N21         10.1290     9.6050     3.1680 n3         1 H52      -0.810500
      5 C22         10.3870     8.1280     3.3330 c3         1 H52       0.246500
      6 C2M          9.2620     7.2680     2.7050 c3         1 H52      -0.115100
      7 C23         11.7820     7.6120     2.8270 c3         1 H52       0.159800
      8 N24         12.8740     7.8180     3.8240 n7         1 H52      -0.861400
      9 C25         13.4160     9.1840     3.9740 c3         1 H52       0.167800
     10 C26         12.3330    10.2280     4.3140 c3         1 H52      -0.092400
     11 C27         11.3470    10.4560     3.1510 c3         1 H52       0.240800
     12 C5           7.3510     9.9890     3.0580 ca         1 H52      -0.247500
     13 C10          6.0060     9.7870     3.5330 ca         1 H52       0.089000
     14 C4           5.5040    10.0190     4.8600 ca         1 H52      -0.103300
     15 CM           6.2170    10.7670     5.9900 c3         1 H52      -0.081800
     16 C9           5.0410     9.3330     2.5870 ca         1 H52      -0.119000
     17 C8           5.3480     9.2000     1.2230 ca         1 H52      -0.033000
     18 C7           6.6200     9.5300     0.7600 ca         1 H52      -0.140000
     19 C6           7.6090     9.9150     1.6660 ca         1 H52      -0.027000
     20 C1           3.7350     9.0160     2.9960 ca         1 H52       0.352900
     21 N2           3.3020     9.1500     4.2600 nb         1 H52      -0.653000
     22 C3           4.1710     9.6540     5.1540 ca         1 H52       0.323900
     23 H22         10.3920     7.8770     4.4030 h1         1 H52       0.093700
     24 H2M1         9.1700     7.4740     1.6320 hc         1 H52       0.044367
     25 H2M2         9.4750     6.2000     2.8280 hc         1 H52       0.044367
     26 H2M3         8.2940     7.4520     3.1830 hc         1 H52       0.044367
     27 H231        12.0270     8.0600     1.8550 h1         1 H52       0.033200
     28 H232        11.6960     6.5310     2.6550 h1         1 H52       0.033200
     29 H24         13.6590     7.2080     3.5600 hn         1 H52       0.416000
     30 H251        13.9280     9.4910     3.0520 h1         1 H52       0.029200
     31 H252        14.1660     9.1910     4.7760 h1         1 H52       0.029200
     32 H261        12.8390    11.1770     4.5210 hc         1 H52       0.064700
     33 H262        11.8010     9.9500     5.2310 hc         1 H52       0.064700
     34 H271        11.0920    11.5220     3.1110 h1         1 H52       0.046700
     35 H272        11.8890    10.2850     2.2110 h1         1 H52       0.046700
     36 HM1          6.8560    11.5750     5.6230 hc         1 H52       0.066367
     37 HM2          5.4910    11.2600     6.6490 hc         1 H52       0.066367
     38 HM3          6.7920    10.0930     6.6330 hc         1 H52       0.066367
     39 H8           4.5900     8.8670     0.5160 ha         1 H52       0.118000
     40 H7           6.8510     9.4540    -0.3000 ha         1 H52       0.120000
     41 H6           8.6010    10.1210     1.2700 ha         1 H52       0.118000
     42 H1           3.0010     8.6460     2.2800 h4         1 H52       0.017100
     43 H3           3.7660     9.8100     6.1530 h4         1 H52       0.020100
@<TRIPOS>BOND
     1     1     2 2   
     2     2     3 2   
     3     2     4 1   
     4     2    12 1   
     5     4     5 1   
     6     4    11 1   
     7     5     6 1   
     8     5     7 1   
     9     5    23 1   
    10     6    24 1   
    11     6    25 1   
    12     6    26 1   
    13     7     8 1   
    14     7    27 1   
    15     7    28 1   
    16     8     9 1   
    17     8    29 1   
    18     9    10 1   
    19     9    30 1   
    20     9    31 1   
    21    10    11 1   
    22    10    32 1   
    23    10    33 1   
    24    11    34 1   
    25    11    35 1   
    26    12    13 ar  
    27    12    19 ar  
    28    13    14 ar  
    29    13    16 ar  
    30    14    15 1   
    31    14    22 ar  
    32    15    36 1   
    33    15    37 1   
    34    15    38 1   
    35    16    17 ar  
    36    16    20 ar  
    37    17    18 ar  
    38    17    39 1   
    39    18    19 ar  
    40    18    40 1   
    41    19    41 1   
    42    20    21 ar  
    43    20    42 1   
    44    21    22 ar  
    45    22    43 1   
@<TRIPOS>SUBSTRUCTURE
     1 H52         1 TEMP              0 ****  ****    0 ROOT
