@<TRIPOS>MOLECULE
H52
   43    45     1     0     0
SMALL
abcg2


@<TRIPOS>ATOM
      1 O1           8.9740    10.8080     4.8860 o          1 H52      -0.547500
      2 S5           8.7660     9.4750     4.3600 sy         1 H52       1.215600
      3 O2           8.5020     8.3840     5.2710 o          1 H52      -0.547500
      4 N21         10.0690     9.0720     3.4890 n3         1 H52      -0.810500
      5 C22         10.5410     7.6650     3.4380 c3         1 H52       0.246500
      6 C2M          9.9350     6.8750     2.2830 c3         1 H52      -0.115100
      7 C23         12.0720     7.6050     3.3780 c3         1 H52       0.159800
      8 N24         12.7430     8.4680     4.3450 n7         1 H52      -0.861400
      9 C25         13.1380     9.7630     3.7840 c3         1 H52       0.167800
     10 C26         11.9610    10.7120     3.5960 c3         1 H52      -0.092400
     11 C27         10.8020    10.1390     2.7820 c3         1 H52       0.240800
     12 C5           7.3590     9.5870     3.2410 ca         1 H52      -0.247500
     13 C10          6.0080     9.8650     3.6630 ca         1 H52       0.089000
     14 C4           5.5050    10.1410     4.9790 ca         1 H52      -0.103300
     15 CM           6.3030    10.2460     6.2500 c3         1 H52      -0.081800
     16 C9           5.0290     9.8650     2.6130 ca         1 H52      -0.119000
     17 C8           5.3740     9.6420     1.2610 ca         1 H52      -0.033000
     18 C7           6.6710     9.4130     0.9090 ca         1 H52      -0.140000
     19 C6           7.6520     9.3810     1.9130 ca         1 H52      -0.027000
     20 C1           3.6690    10.0970     2.9190 ca         1 H52       0.352900
     21 N2           3.2240    10.3280     4.1280 nb         1 H52      -0.653000
     22 C3           4.1460    10.3510     5.1160 ca         1 H52       0.323900
     23 H22         10.2340     7.2170     4.3790 h1         1 H52       0.093700
     24 H2M1        10.1720     7.3380     1.3230 hc         1 H52       0.044367
     25 H2M2        10.3420     5.8620     2.2800 hc         1 H52       0.044367
     26 H2M3         8.8520     6.8050     2.3790 hc         1 H52       0.044367
     27 H231        12.4050     7.8210     2.3530 h1         1 H52       0.033200
     28 H232        12.3400     6.5670     3.5810 h1         1 H52       0.033200
     29 H24         13.5710     7.9970     4.6850 hn         1 H52       0.416000
     30 H251        13.6440     9.6290     2.8140 h1         1 H52       0.029200
     31 H252        13.8570    10.2210     4.4650 h1         1 H52       0.029200
     32 H261        12.3210    11.6090     3.0820 hc         1 H52       0.064700
     33 H262        11.5740    11.0240     4.5670 hc         1 H52       0.064700
     34 H271        10.1000    10.9350     2.5420 h1         1 H52       0.046700
     35 H272        11.1470     9.7290     1.8310 h1         1 H52       0.046700
     36 HM1          7.0700    11.0140     6.1830 hc         1 H52       0.066367
     37 HM2          5.6330    10.5010     7.0700 hc         1 H52       0.066367
     38 HM3          6.8040     9.3130     6.4950 hc         1 H52       0.066367
     39 H8           4.5860     9.6610     0.5190 ha         1 H52       0.118000
     40 H7           6.9550     9.2450    -0.1210 ha         1 H52       0.120000
     41 H6           8.6680     9.1780     1.6200 ha         1 H52       0.118000
     42 H1           2.9470    10.0830     2.1080 h4         1 H52       0.017100
     43 H3           3.7560    10.5580     6.1060 h4         1 H52       0.020100
@<TRIPOS>BOND
     1     1     2 2   
     2     2     3 2   
     3     2     4 1   
     4     2    12 1   
     5     4     5 1   
     6     4    11 1   
     7     5     6 1   
     8     5     7 1   
     9     5    23 1   
    10     6    24 1   
    11     6    25 1   
    12     6    26 1   
    13     7     8 1   
    14     7    27 1   
    15     7    28 1   
    16     8     9 1   
    17     8    29 1   
    18     9    10 1   
    19     9    30 1   
    20     9    31 1   
    21    10    11 1   
    22    10    32 1   
    23    10    33 1   
    24    11    34 1   
    25    11    35 1   
    26    12    13 ar  
    27    12    19 ar  
    28    13    14 ar  
    29    13    16 ar  
    30    14    15 1   
    31    14    22 ar  
    32    15    36 1   
    33    15    37 1   
    34    15    38 1   
    35    16    17 ar  
    36    16    20 ar  
    37    17    18 ar  
    38    17    39 1   
    39    18    19 ar  
    40    18    40 1   
    41    19    41 1   
    42    20    21 ar  
    43    20    42 1   
    44    21    22 ar  
    45    22    43 1   
@<TRIPOS>SUBSTRUCTURE
     1 H52         1 TEMP              0 ****  ****    0 ROOT
