@<TRIPOS>MOLECULE
H53
   35    36     1     0     0
SMALL
abcg2


@<TRIPOS>ATOM
      1 O5           0.6950     0.9280     0.1190 os         1 H53      -0.433000
      2 C5           2.0840     0.9510     0.3790 c6         1 H53       0.171300
      3 C4           2.7880    -0.0950    -0.4880 c6         1 H53       0.113300
      4 C3           2.1520    -1.4620    -0.2500 c6         1 H53       0.098300
      5 C2           0.6490    -1.3910    -0.4630 c6         1 H53       0.143300
      6 C1           0.0640    -0.2870     0.4240 c6         1 H53       0.220600
      7 C7          -1.4260    -0.1260     0.2340 ca         1 H53      -0.110300
      8 C12         -2.3190    -0.9850     0.8820 ca         1 H53       0.121100
      9 O12         -1.9010    -2.0030     1.6790 oh         1 H53      -0.562100
     10 C11         -3.6870    -0.7780     0.7400 ca         1 H53      -0.112000
     11 C10         -4.1780     0.2480    -0.0500 ca         1 H53      -0.110000
     12 C9          -3.2940     1.0790    -0.7280 ca         1 H53       0.102100
     13 O9          -3.8120     2.0560    -1.5100 oh         1 H53      -0.538100
     14 C8          -1.9260     0.8880    -0.5790 ca         1 H53      -0.147000
     15 O2           0.0220    -2.6050    -0.1150 oh         1 H53      -0.743000
     16 O3           2.6660    -2.4420    -1.1270 oh         1 H53      -0.669000
     17 O4           4.1550    -0.1050    -0.1490 oh         1 H53      -0.717000
     18 C6           2.5780     2.3510     0.0840 c3         1 H53       0.171600
     19 O6           1.9620     3.2510     0.9740 oh         1 H53      -0.706000
     20 H5           2.2690     0.7150     1.4400 h1         1 H53       0.065700
     21 H4           2.6470     0.1810    -1.5440 h1         1 H53       0.055700
     22 H3           2.3340    -1.7460     0.7980 h1         1 H53       0.056700
     23 H2           0.4390    -1.1370    -1.5120 h1         1 H53       0.065700
     24 H1           0.2580    -0.5570     1.4760 h1         1 H53       0.059700
     25 HO12        -1.1510    -2.4460     1.2420 ho         1 H53       0.488000
     26 H11         -4.3750    -1.4370     1.2540 ha         1 H53       0.128000
     27 H10         -5.2460     0.3940    -0.1500 ha         1 H53       0.129000
     28 HO9         -3.1030     2.5620    -1.9230 ho         1 H53       0.462000
     29 H8          -1.2360     1.5480    -1.0910 ha         1 H53       0.125000
     30 HO2          0.4520    -3.3350    -0.5760 ho         1 H53       0.534000
     31 HO3          3.4380    -2.8490    -0.7260 ho         1 H53       0.454000
     32 HO4          4.6460    -0.5090    -0.8690 ho         1 H53       0.512000
     33 H61          2.3520     2.5910    -0.9640 h1         1 H53       0.032700
     34 H62          3.6680     2.3600     0.1890 h1         1 H53       0.032700
     35 HO6          2.3110     4.1280     0.7950 ho         1 H53       0.504000
@<TRIPOS>BOND
     1     1     2 1   
     2     1     6 1   
     3     2     3 1   
     4     2    18 1   
     5     2    20 1   
     6     3     4 1   
     7     3    17 1   
     8     3    21 1   
     9     4     5 1   
    10     4    16 1   
    11     4    22 1   
    12     5     6 1   
    13     5    15 1   
    14     5    23 1   
    15     6     7 1   
    16     6    24 1   
    17     7     8 ar  
    18     7    14 ar  
    19     8     9 1   
    20     8    10 ar  
    21     9    25 1   
    22    10    11 ar  
    23    10    26 1   
    24    11    12 ar  
    25    11    27 1   
    26    12    13 1   
    27    12    14 ar  
    28    13    28 1   
    29    14    29 1   
    30    15    30 1   
    31    16    31 1   
    32    17    32 1   
    33    18    19 1   
    34    18    33 1   
    35    18    34 1   
    36    19    35 1   
@<TRIPOS>SUBSTRUCTURE
     1 H53         1 TEMP              0 ****  ****    0 ROOT
