@<TRIPOS>MOLECULE
H53
   35    36     1     0     0
SMALL
No Charge or Current Charge


@<TRIPOS>ATOM
      1 O5           0.7070     0.8940     0.1020 os         1 H53      -0.433000
      2 C5           2.1350     0.8870     0.3640 c6         1 H53       0.171300
      3 C4           2.8170    -0.2300    -0.4940 c6         1 H53       0.113300
      4 C3           2.1490    -1.5910    -0.1520 c6         1 H53       0.098300
      5 C2           0.6100    -1.5260    -0.3650 c6         1 H53       0.143300
      6 C1           0.0100    -0.3290     0.4490 c6         1 H53       0.220600
      7 C7          -1.5130    -0.1320     0.2310 ca         1 H53      -0.110300
      8 C12         -2.4470    -1.0170     0.8230 ca         1 H53       0.121100
      9 O12         -2.0250    -2.1160     1.5100 oh         1 H53      -0.562100
     10 C11         -3.8280    -0.8010     0.6830 ca         1 H53      -0.112000
     11 C10         -4.3010     0.2900    -0.0640 ca         1 H53      -0.110000
     12 C9          -3.3910     1.1650    -0.6730 ca         1 H53       0.102100
     13 O9          -3.8560     2.2190    -1.4030 oh         1 H53      -0.538100
     14 C8          -2.0080     0.9590    -0.5280 ca         1 H53      -0.147000
     15 O2           0.0490    -2.7990     0.0150 oh         1 H53      -0.743000
     16 O3           2.7230    -2.6490    -0.9410 oh         1 H53      -0.669000
     17 O4           4.2390    -0.3180    -0.2530 oh         1 H53      -0.717000
     18 C6           2.6940     2.3170     0.0570 c3         1 H53       0.171600
     19 O6           2.0330     3.3620     0.8010 oh         1 H53      -0.706000
     20 H5           2.2990     0.6790     1.4310 h1         1 H53       0.065700
     21 H4           2.6280    -0.0100    -1.5560 h1         1 H53       0.055700
     22 H3           2.3330    -1.7910     0.9150 h1         1 H53       0.056700
     23 H2           0.4150    -1.3350    -1.4320 h1         1 H53       0.065700
     24 H1           0.1790    -0.5140     1.5210 h1         1 H53       0.059700
     25 HO12        -1.2050    -2.4440     1.0410 ho         1 H53       0.488000
     26 H11         -4.5330    -1.4880     1.1430 ha         1 H53       0.128000
     27 H10         -5.3700     0.4520    -0.1750 ha         1 H53       0.129000
     28 HO9         -3.0890     2.7260    -1.7470 ho         1 H53       0.462000
     29 H8          -1.3200     1.6540    -1.0030 ha         1 H53       0.125000
     30 HO2          0.6970    -3.4600    -0.3410 ho         1 H53       0.534000
     31 HO3          3.6910    -2.4640    -0.9470 ho         1 H53       0.454000
     32 HO4          4.6890     0.3040    -0.8720 ho         1 H53       0.512000
     33 H61          2.5890     2.5000    -1.0210 h1         1 H53       0.032700
     34 H62          3.7680     2.3240     0.2860 h1         1 H53       0.032700
     35 HO6          2.4070     4.2180     0.4880 ho         1 H53       0.504000
@<TRIPOS>BOND
     1     1     2 1   
     2     1     6 1   
     3     2     3 1   
     4     2    18 1   
     5     2    20 1   
     6     3     4 1   
     7     3    17 1   
     8     3    21 1   
     9     4     5 1   
    10     4    16 1   
    11     4    22 1   
    12     5     6 1   
    13     5    15 1   
    14     5    23 1   
    15     6     7 1   
    16     6    24 1   
    17     7     8 ar  
    18     7    14 ar  
    19     8     9 1   
    20     8    10 ar  
    21     9    25 1   
    22    10    11 ar  
    23    10    26 1   
    24    11    12 ar  
    25    11    27 1   
    26    12    13 1   
    27    12    14 ar  
    28    13    28 1   
    29    14    29 1   
    30    15    30 1   
    31    16    31 1   
    32    17    32 1   
    33    18    19 1   
    34    18    33 1   
    35    18    34 1   
    36    19    35 1   
@<TRIPOS>SUBSTRUCTURE
     1 H53         1 TEMP              0 ****  ****    0 ROOT
