@<TRIPOS>MOLECULE
H54
   31    32     1     0     0
SMALL
No Charge or Current Charge


@<TRIPOS>ATOM
      1 N1          -1.3060     0.5470     0.6100 ns         1 H54      -0.149000
      2 C4           3.2280     1.2980    -1.3100 ca         1 H54      -0.106000
      3 C5           2.1600     1.4500    -0.4100 ca         1 H54      -0.098000
      4 C6           2.0540     0.6060     0.7120 ca         1 H54      -0.072300
      5 C7           0.8920     0.7640     1.6880 c3         1 H54      -0.111100
      6 C8          -0.2880    -0.1260     1.2750 c          1 H54       0.605100
      7 C10         -3.0040    -1.2270     0.1220 ca         1 H54      -0.100000
      8 C13         -3.3680     1.0600    -0.5830 ca         1 H54       0.281900
      9 C2           4.0970    -0.5490     0.0220 ca         1 H54      -0.073300
     10 C3           4.1950     0.3030    -1.0940 ca         1 H54      -0.103000
     11 C9          -2.5460     0.1080     0.0610 ca         1 H54      -0.069000
     12 C11         -4.2470    -1.5340    -0.4590 ca         1 H54      -0.135000
     13 C12         -4.9920    -0.5150    -1.0770 ca         1 H54       0.302900
     14 N2          -4.5650     0.7660    -1.1420 nb         1 H54      -0.643000
     15 O1          -0.2970    -1.3280     1.5140 o          1 H54      -0.559100
     16 C14          3.0260    -0.3920     0.9220 ca         1 H54      -0.089000
     17 H1          -1.1330     1.5370     0.4890 hn         1 H54       0.150000
     18 H2           3.3070     1.9540    -2.1740 ha         1 H54       0.114000
     19 H3           1.4160     2.2240    -0.5870 ha         1 H54       0.110000
     20 H4           1.2160     0.4740     2.6940 hc         1 H54       0.065700
     21 H5           0.5770     1.8150     1.6990 hc         1 H54       0.065700
     22 H6          -2.4330    -2.0180     0.5990 ha         1 H54       0.153000
     23 H7          -3.0540     2.1010    -0.6530 h4         1 H54       0.011100
     24 H8           5.9530    -1.2530     0.8960 hc         1 H54       0.042700
     25 H9           4.7090    -2.5060     0.7500 hc         1 H54       0.042700
     26 H10          5.5900    -1.9670    -0.6850 hc         1 H54       0.042700
     27 H11          5.0200     0.1940    -1.7950 ha         1 H54       0.112000
     28 H12         -4.6360    -2.5490    -0.4330 ha         1 H54       0.125000
     29 H13         -5.9570    -0.7310    -1.5330 h4         1 H54       0.022100
     30 H14          2.9480    -1.0490     1.7860 ha         1 H54       0.109000
     31 C1           5.1440    -1.6280     0.2580 c3         1 H54      -0.046800
@<TRIPOS>BOND
     1     1     6 1   
     2     1    11 1   
     3     1    17 1   
     4     2     3 ar  
     5     2    10 ar  
     6     2    18 1   
     7     3     4 ar  
     8     3    19 1   
     9     4     5 1   
    10     4    16 ar  
    11     5     6 1   
    12     5    20 1   
    13     5    21 1   
    14     6    15 2   
    15     7    11 ar  
    16     7    12 ar  
    17     7    22 1   
    18     8    11 ar  
    19     8    14 ar  
    20     8    23 1   
    21     9    10 ar  
    22     9    16 ar  
    23     9    31 1   
    24    10    27 1   
    25    12    13 ar  
    26    12    28 1   
    27    13    14 ar  
    28    13    29 1   
    29    16    30 1   
    30    24    31 1   
    31    25    31 1   
    32    26    31 1   
@<TRIPOS>SUBSTRUCTURE
     1 H54         1 TEMP              0 ****  ****    0 ROOT
