@<TRIPOS>MOLECULE
H54
   31    32     1     0     0
SMALL
bcc


@<TRIPOS>ATOM
      1 N1          -1.5130     0.7130     0.4440 ns         1 H54      -0.475100
      2 C4           3.9310     0.8630    -1.5270 ca         1 H54      -0.124000
      3 C5           2.6920     1.2640    -1.0470 ca         1 H54      -0.116000
      4 C6           2.1900     0.7200     0.1310 ca         1 H54      -0.072300
      5 C7           0.8440     1.1320     0.6420 c3         1 H54      -0.111100
      6 C8          -0.2770     0.2510     0.1130 c          1 H54       0.672100
      7 C10         -2.9790    -1.0600    -0.4730 ca         1 H54      -0.118000
      8 C13         -3.8810     0.8480     0.6440 ca         1 H54       0.347200
      9 C2           4.1940    -0.6380     0.3480 ca         1 H54      -0.073300
     10 C3           4.6750    -0.0830    -0.8360 ca         1 H54      -0.121000
     11 C9          -2.7580     0.1460     0.1890 ca         1 H54      -0.041700
     12 C11         -4.2880    -1.4870    -0.6370 ca         1 H54      -0.218300
     13 C12         -5.3290    -0.7170    -0.1480 ca         1 H54       0.368200
     14 N2          -5.1240     0.4340     0.4840 nb         1 H54      -0.643000
     15 O1          -0.0810    -0.7660    -0.5210 o          1 H54      -0.559100
     16 C14          2.9470    -0.2260     0.8120 ca         1 H54      -0.107000
     17 H1          -1.5380     1.5800     0.9620 hn         1 H54       0.316500
     18 H2           4.3170     1.2880    -2.4450 ha         1 H54       0.132000
     19 H3           2.1130     2.0020    -1.5900 ha         1 H54       0.128000
     20 H4           0.8060     1.0820     1.7330 hc         1 H54       0.065700
     21 H5           0.6350     2.1730     0.3810 hc         1 H54       0.065700
     22 H6          -2.1650    -1.6550    -0.8520 ha         1 H54       0.171000
     23 H7          -3.7440     1.7910     1.1670 h4         1 H54       0.011100
     24 H8           5.6940    -1.1380     1.8040 hc         1 H54       0.042700
     25 H9           4.3770    -2.2980     1.7110 hc         1 H54       0.042700
     26 H10          5.6130    -2.2560     0.4530 hc         1 H54       0.042700
     27 H11          5.6410    -0.3910    -1.2190 ha         1 H54       0.130000
     28 H12         -4.4950    -2.4190    -1.1460 ha         1 H54       0.143000
     29 H13         -6.3580    -1.0350    -0.2660 h4         1 H54       0.022100
     30 H14          2.5600    -0.6520     1.7320 ha         1 H54       0.127000
     31 C1           5.0090    -1.6380     1.1170 c3         1 H54      -0.046800
@<TRIPOS>BOND
     1     1     6 1   
     2     1    11 1   
     3     1    17 1   
     4     2     3 ar  
     5     2    10 ar  
     6     2    18 1   
     7     3     4 ar  
     8     3    19 1   
     9     4     5 1   
    10     4    16 ar  
    11     5     6 1   
    12     5    20 1   
    13     5    21 1   
    14     6    15 2   
    15     7    11 ar  
    16     7    12 ar  
    17     7    22 1   
    18     8    11 ar  
    19     8    14 ar  
    20     8    23 1   
    21     9    10 ar  
    22     9    16 ar  
    23     9    31 1   
    24    10    27 1   
    25    12    13 ar  
    26    12    28 1   
    27    13    14 ar  
    28    13    29 1   
    29    16    30 1   
    30    24    31 1   
    31    25    31 1   
    32    26    31 1   
@<TRIPOS>SUBSTRUCTURE
     1 H54         1 TEMP              0 ****  ****    0 ROOT
