@<TRIPOS>MOLECULE
H55
   33    34     1     0     0
SMALL
No Charge or Current Charge


@<TRIPOS>ATOM
      1 O1          -3.5960    -0.8690    -0.0060 o          1 H55      -0.583100
      2 C7          -2.5470    -0.2330    -0.0030 c          1 H55       0.557600
      3 N4          -2.5160     1.1380    -0.0690 ns         1 H55      -0.435400
      4 C8          -3.5500     2.0090    -0.2050 c2         1 H55       0.660800
      5 N6          -4.5550     1.8610    -0.9420 n2         1 H55      -0.824100
      6 N5          -3.1900     3.1780     0.3360 nv         1 H55      -1.085200
      7 C6          -1.1750    -0.8800     0.0800 ca         1 H55       0.079500
      8 N3          -0.0570    -0.0780    -0.0020 nb         1 H55      -0.603000
      9 C9          -1.0510    -2.3010     0.2240 ca         1 H55       0.692900
     10 N7          -2.0300    -3.2060     0.3320 nv         1 H55      -1.060900
     11 N8           0.1050    -2.9600     0.2660 nb         1 H55      -0.844000
     12 C10          1.1790    -2.1730     0.1880 ca         1 H55       0.657900
     13 N9           2.2450    -2.9940     0.2100 nv         1 H55      -1.056900
     14 C5           1.1450    -0.7270     0.0550 ca         1 H55       0.282500
     15 C4           2.3520     0.1190    -0.0030 cc         1 H55      -0.252500
     16 C1           2.2920     1.4680    -0.2230 cd         1 H55      -0.141000
     17 C3           3.7130    -0.1930     0.1540 cc         1 H55       0.240900
     18 N2           4.5130     0.8470     0.0420 nd         1 H55      -0.524800
     19 N1           3.6250     1.8890    -0.1960 na         1 H55       0.132800
     20 C2           4.1100     3.2630    -0.3840 c3         1 H55       0.071900
     21 H1          -1.5930     1.5420    -0.0340 hn         1 H55       0.347500
     22 H2          -5.0850     2.7400    -0.9480 hn         1 H55       0.377400
     23 H3          -2.6430     3.0840     1.1850 hn         1 H55       0.457000
     24 H4          -3.9360     3.8610     0.4090 hn         1 H55       0.457000
     25 H5          -2.9570    -2.9030     0.0450 hn         1 H55       0.517500
     26 H6          -1.7560    -4.1540     0.1070 hn         1 H55       0.517500
     27 H7           1.9680    -3.9650     0.1370 hn         1 H55       0.492000
     28 H8           3.0360    -2.7290    -0.3640 hn         1 H55       0.492000
     29 H9           1.4570     2.1390    -0.3910 h4         1 H55       0.162000
     30 H10          4.1580    -1.1570     0.3590 h4         1 H55       0.040100
     31 H11          4.8010     3.2940    -1.2350 h1         1 H55       0.057700
     32 H12          3.2630     3.9310    -0.5810 h1         1 H55       0.057700
     33 H13          4.6300     3.5950     0.5210 h1         1 H55       0.057700
@<TRIPOS>BOND
     1     1     2 2   
     2     2     3 1   
     3     2     7 1   
     4     3     4 1   
     5     3    21 1   
     6     4     5 2   
     7     4     6 1   
     8     5    22 1   
     9     6    23 1   
    10     6    24 1   
    11     7     8 ar  
    12     7     9 ar  
    13     8    14 ar  
    14     9    10 1   
    15     9    11 ar  
    16    10    25 1   
    17    10    26 1   
    18    11    12 ar  
    19    12    13 1   
    20    12    14 ar  
    21    13    27 1   
    22    13    28 1   
    23    14    15 1   
    24    15    16 2   
    25    15    17 1   
    26    16    19 1   
    27    16    29 1   
    28    17    18 2   
    29    17    30 1   
    30    18    19 1   
    31    19    20 1   
    32    20    31 1   
    33    20    32 1   
    34    20    33 1   
@<TRIPOS>SUBSTRUCTURE
     1 H55         1 TEMP              0 ****  ****    0 ROOT
