@<TRIPOS>MOLECULE
H55
   33    34     1     0     0
SMALL
abcg2


@<TRIPOS>ATOM
      1 O1          -3.6010    -0.8860    -0.1080 o          1 H55      -0.583100
      2 C7          -2.5320    -0.2960    -0.0610 c          1 H55       0.557600
      3 N4          -2.4000     1.0630    -0.0300 ns         1 H55      -0.435400
      4 C8          -3.3960     2.0350    -0.0480 c2         1 H55       0.660800
      5 N6          -4.5890     1.7690    -0.4010 n2         1 H55      -0.824100
      6 N5          -2.8850     3.2680     0.2790 nv         1 H55      -1.085200
      7 C6          -1.2360    -0.9980    -0.0190 ca         1 H55       0.079500
      8 N3          -0.1330    -0.2520     0.0250 nb         1 H55      -0.603000
      9 C9          -1.1170    -2.4090     0.0010 ca         1 H55       0.692900
     10 N7          -2.1620    -3.2430     0.0120 nv         1 H55      -1.060900
     11 N8           0.0960    -2.9700     0.0090 nb         1 H55      -0.844000
     12 C10          1.1710    -2.2050     0.0270 ca         1 H55       0.657900
     13 N9           2.3700    -2.8160     0.0250 nv         1 H55      -1.056900
     14 C5           1.0620    -0.7780     0.0660 ca         1 H55       0.282500
     15 C4           2.2150     0.1170     0.1120 cc         1 H55      -0.252500
     16 C1           2.2870     1.3710    -0.4650 cd         1 H55      -0.141000
     17 C3           3.4550    -0.0110     0.7740 cc         1 H55       0.240900
     18 N2           4.2040     1.0620     0.6080 nd         1 H55      -0.524800
     19 N1           3.4810     1.8870    -0.1420 na         1 H55       0.132800
     20 C2           4.0250     3.1590    -0.5540 c3         1 H55       0.071900
     21 H1          -1.4400     1.3790     0.0280 hn         1 H55       0.347500
     22 H2          -5.1700     2.5950    -0.3120 hn         1 H55       0.377400
     23 H3          -2.1400     3.2960     0.9590 hn         1 H55       0.457000
     24 H4          -3.5640     3.9970     0.4240 hn         1 H55       0.457000
     25 H5          -3.0990    -2.8860    -0.0510 hn         1 H55       0.517500
     26 H6          -1.9980    -4.2340    -0.0250 hn         1 H55       0.517500
     27 H7           2.3890    -3.8070    -0.1490 hn         1 H55       0.492000
     28 H8           3.1950    -2.3070    -0.2450 hn         1 H55       0.492000
     29 H9           1.5780     1.9070    -1.0760 h4         1 H55       0.162000
     30 H10          3.8130    -0.8280     1.3820 h4         1 H55       0.040100
     31 H11          4.8360     3.0150    -1.2660 h1         1 H55       0.057700
     32 H12          3.2400     3.7430    -1.0260 h1         1 H55       0.057700
     33 H13          4.3990     3.7000     0.3110 h1         1 H55       0.057700
@<TRIPOS>BOND
     1     1     2 2   
     2     2     3 1   
     3     2     7 1   
     4     3     4 1   
     5     3    21 1   
     6     4     5 2   
     7     4     6 1   
     8     5    22 1   
     9     6    23 1   
    10     6    24 1   
    11     7     8 ar  
    12     7     9 ar  
    13     8    14 ar  
    14     9    10 1   
    15     9    11 ar  
    16    10    25 1   
    17    10    26 1   
    18    11    12 ar  
    19    12    13 1   
    20    12    14 ar  
    21    13    27 1   
    22    13    28 1   
    23    14    15 1   
    24    15    16 2   
    25    15    17 1   
    26    16    19 1   
    27    16    29 1   
    28    17    18 2   
    29    17    30 1   
    30    18    19 1   
    31    19    20 1   
    32    20    31 1   
    33    20    32 1   
    34    20    33 1   
@<TRIPOS>SUBSTRUCTURE
     1 H55         1 TEMP              0 ****  ****    0 ROOT
