@<TRIPOS>MOLECULE
H56
   51    54     1     0     0
SMALL
abcg2


@<TRIPOS>ATOM
      1 C4         171.0980   175.0800   187.3820 ca         1 H56      -0.124500
      2 C5         170.3290   174.7430   188.4850 ca         1 H56      -0.123500
      3 C6         170.6400   175.2940   189.7120 ca         1 H56       0.140000
      4 C7         171.6990   176.1680   189.8650 ca         1 H56      -0.123500
      5 C8         172.4700   176.5000   188.7620 ca         1 H56      -0.124500
      6 C13        174.2700   179.2670   180.9510 ca         1 H56      -0.099300
      7 C15        175.3250   178.2110   179.0400 ca         1 H56      -0.155000
      8 C2         172.8560   175.7600   185.0220 cy         1 H56       0.161000
      9 C3         172.1710   175.9610   187.5090 ca         1 H56      -0.021000
     10 C9         173.9570   176.7920   184.6520 cy         1 H56      -0.166700
     11 C12        174.4220   179.8960   182.3150 c3         1 H56       0.225600
     12 C16        174.0770   178.0480   178.4700 ca         1 H56       0.172000
     13 C18        173.0320   179.0860   180.3440 ca         1 H56      -0.071000
     14 C1         173.8540   177.2420   186.1020 c          1 H56       0.574000
     15 N1         172.9250   176.2840   186.3870 nj         1 H56      -0.237400
     16 O3         173.2610   180.6380   182.6010 oh         1 H56      -0.658000
     17 C14        175.4090   178.8250   180.2800 ca         1 H56      -0.071000
     18 C17        172.9270   178.4740   179.1000 ca         1 H56      -0.155000
     19 C19        173.1700   174.3040   184.8630 ca         1 H56      -0.148300
     20 C20        174.1680   173.6850   185.6130 ca         1 H56      -0.050000
     21 C21        174.4680   172.3460   185.4390 ca         1 H56      -0.178000
     22 C22        173.7700   171.5900   184.4970 ca         1 H56       0.153100
     23 C23        172.7700   172.1960   183.7420 ca         1 H56      -0.178000
     24 C24        172.4770   173.5390   183.9340 ca         1 H56      -0.050000
     25 F1         169.8960   174.9730   190.7840 f          1 H56      -0.180000
     26 H4         170.8500   174.6500   186.4210 ha         1 H56       0.131000
     27 H5         169.4970   174.0590   188.3830 ha         1 H56       0.132000
     28 H7         171.9280   176.5870   190.8350 ha         1 H56       0.132000
     29 H8         173.2990   177.1810   188.8860 ha         1 H56       0.131000
     30 H15        176.2150   177.8730   178.5250 ha         1 H56       0.132000
     31 H2         171.8980   175.9940   184.5450 h1         1 H56       0.069700
     32 H9         174.9180   176.3160   184.4360 hc         1 H56       0.094700
     33 H12        175.3000   180.5580   182.2760 h1         1 H56       0.040700
     34 H18        172.1280   179.4190   180.8350 ha         1 H56       0.123500
     35 H30        173.3320   180.9720   183.5010 ho         1 H56       0.451000
     36 H14        176.3850   178.9640   180.7300 ha         1 H56       0.123500
     37 H17        171.9610   178.3360   178.6320 ha         1 H56       0.132000
     38 H20        174.7220   174.2490   186.3550 ha         1 H56       0.118500
     39 H21        175.2430   171.8790   186.0340 ha         1 H56       0.125000
     40 H23        172.2130   171.6230   183.0100 ha         1 H56       0.125000
     41 H24        171.6890   173.9940   183.3450 ha         1 H56       0.118500
     42 C10        173.6080   177.8150   183.5850 c3         1 H56      -0.053400
     43 O1         174.3460   178.1120   186.7790 o          1 H56      -0.507000
     44 O2         174.0990   170.2910   184.3670 oh         1 H56      -0.528100
     45 C11        174.7150   178.8420   183.3890 c3         1 H56      -0.114400
     46 F2         173.9840   177.4610   177.2640 f          1 H56      -0.180000
     47 H10A       173.4270   177.2780   182.6500 hc         1 H56       0.057200
     48 H10B       172.6680   178.3070   183.8470 hc         1 H56       0.057200
     49 H2O        173.5540   169.8710   183.6920 ho         1 H56       0.468000
     50 H11B       174.9170   179.3600   184.3320 hc         1 H56       0.054700
     51 H11A       175.6460   178.3340   183.1220 hc         1 H56       0.054700
@<TRIPOS>BOND
     1     1     2 ar  
     2     1     9 ar  
     3     1    26 1   
     4     2     3 ar  
     5     2    27 1   
     6     3     4 ar  
     7     3    25 1   
     8     4     5 ar  
     9     4    28 1   
    10     5     9 ar  
    11     5    29 1   
    12     6    11 1   
    13     6    13 ar  
    14     6    17 ar  
    15     7    12 ar  
    16     7    17 ar  
    17     7    30 1   
    18     8    10 1   
    19     8    15 1   
    20     8    19 1   
    21     8    31 1   
    22     9    15 1   
    23    10    14 1   
    24    10    32 1   
    25    10    42 1   
    26    11    16 1   
    27    11    33 1   
    28    11    45 1   
    29    12    18 ar  
    30    12    46 1   
    31    13    18 ar  
    32    13    34 1   
    33    14    15 1   
    34    14    43 2   
    35    16    35 1   
    36    17    36 1   
    37    18    37 1   
    38    19    20 ar  
    39    19    24 ar  
    40    20    21 ar  
    41    20    38 1   
    42    21    22 ar  
    43    21    39 1   
    44    22    23 ar  
    45    22    44 1   
    46    23    24 ar  
    47    23    40 1   
    48    24    41 1   
    49    42    45 1   
    50    42    47 1   
    51    42    48 1   
    52    44    49 1   
    53    45    50 1   
    54    45    51 1   
@<TRIPOS>SUBSTRUCTURE
     1 H56         1 TEMP              0 ****  ****    0 ROOT
