@<TRIPOS>MOLECULE
H56
   51    54     1     0     0
SMALL
No Charge or Current Charge


@<TRIPOS>ATOM
      1 C4         171.0900   174.9400   187.5080 ca         1 H56      -0.124500
      2 C5         170.3670   174.5480   188.6490 ca         1 H56      -0.123500
      3 C6         170.6320   175.1540   189.8860 ca         1 H56       0.140000
      4 C7         171.6160   176.1480   189.9900 ca         1 H56      -0.123500
      5 C8         172.3410   176.5400   188.8500 ca         1 H56      -0.124500
      6 C13        174.3680   179.2650   180.8590 ca         1 H56      -0.099300
      7 C15        175.3980   178.4250   178.8070 ca         1 H56      -0.155000
      8 C2         172.7900   175.8010   185.0660 cy         1 H56       0.161000
      9 C3         172.0830   175.9380   187.6010 ca         1 H56      -0.021000
     10 C9         173.9080   176.8230   184.6920 cy         1 H56      -0.166700
     11 C12        174.5270   179.9040   182.2430 c3         1 H56       0.225600
     12 C16        174.1340   178.0690   178.3150 ca         1 H56       0.172000
     13 C18        173.0990   178.9000   180.3520 ca         1 H56      -0.071000
     14 C1         173.7610   177.3240   186.1540 c          1 H56       0.574000
     15 N1         172.8120   176.3280   186.4500 nj         1 H56      -0.237400
     16 O3         173.3970   180.7190   182.5750 oh         1 H56      -0.658000
     17 C14        175.5150   179.0200   180.0750 ca         1 H56      -0.071000
     18 C17        172.9850   178.3030   179.0840 ca         1 H56      -0.155000
     19 C19        173.1210   174.3240   184.8680 ca         1 H56      -0.148300
     20 C20        174.1550   173.7120   185.6070 ca         1 H56      -0.050000
     21 C21        174.4470   172.3500   185.4180 ca         1 H56      -0.178000
     22 C22        173.7120   171.5930   184.4950 ca         1 H56       0.153100
     23 C23        172.6810   172.1950   183.7570 ca         1 H56      -0.178000
     24 C24        172.3860   173.5580   183.9420 ca         1 H56      -0.050000
     25 F1         169.9370   174.7770   190.9820 f          1 H56      -0.180000
     26 H4         170.8730   174.4630   186.5550 ha         1 H56       0.131000
     27 H5         169.6030   173.7780   188.5750 ha         1 H56       0.132000
     28 H7         171.8170   176.6120   190.9530 ha         1 H56       0.132000
     29 H8         173.1020   177.3100   188.9470 ha         1 H56       0.131000
     30 H15        176.2840   178.2380   178.2060 ha         1 H56       0.132000
     31 H2         171.8290   176.0300   184.5900 h1         1 H56       0.069700
     32 H9         174.8970   176.3720   184.5600 hc         1 H56       0.094700
     33 H12        175.4200   180.5440   182.2060 h1         1 H56       0.040700
     34 H18        172.2010   179.0720   180.9420 ha         1 H56       0.123500
     35 H30        173.6090   181.1640   183.4240 ho         1 H56       0.451000
     36 H14        176.5000   179.2900   180.4510 ha         1 H56       0.123500
     37 H17        172.0080   178.0230   178.6980 ha         1 H56       0.132000
     38 H20        174.7320   174.2880   186.3280 ha         1 H56       0.118500
     39 H21        175.2450   171.8820   185.9900 ha         1 H56       0.125000
     40 H23        172.1050   171.6170   183.0390 ha         1 H56       0.125000
     41 H24        171.5850   174.0160   183.3650 ha         1 H56       0.118500
     42 C10        173.6320   177.8170   183.5480 c3         1 H56      -0.053400
     43 O1         174.2720   178.2180   186.8140 o          1 H56      -0.507000
     44 O2         174.0040   170.2740   184.3210 oh         1 H56      -0.528100
     45 C11        174.7660   178.8580   183.3600 c3         1 H56      -0.114400
     46 F2         174.0220   177.4950   177.0970 f          1 H56      -0.180000
     47 H10A       173.5060   177.2530   182.6150 hc         1 H56       0.057200
     48 H10B       172.6820   178.3360   183.7300 hc         1 H56       0.057200
     49 H2O        173.3950   169.9090   183.6440 ho         1 H56       0.468000
     50 H11B       174.9330   179.3870   184.3060 hc         1 H56       0.054700
     51 H11A       175.6990   178.3260   183.1390 hc         1 H56       0.054700
@<TRIPOS>BOND
     1     1     2 ar  
     2     1     9 ar  
     3     1    26 1   
     4     2     3 ar  
     5     2    27 1   
     6     3     4 ar  
     7     3    25 1   
     8     4     5 ar  
     9     4    28 1   
    10     5     9 ar  
    11     5    29 1   
    12     6    11 1   
    13     6    13 ar  
    14     6    17 ar  
    15     7    12 ar  
    16     7    17 ar  
    17     7    30 1   
    18     8    10 1   
    19     8    15 1   
    20     8    19 1   
    21     8    31 1   
    22     9    15 1   
    23    10    14 1   
    24    10    32 1   
    25    10    42 1   
    26    11    16 1   
    27    11    33 1   
    28    11    45 1   
    29    12    18 ar  
    30    12    46 1   
    31    13    18 ar  
    32    13    34 1   
    33    14    15 1   
    34    14    43 2   
    35    16    35 1   
    36    17    36 1   
    37    18    37 1   
    38    19    20 ar  
    39    19    24 ar  
    40    20    21 ar  
    41    20    38 1   
    42    21    22 ar  
    43    21    39 1   
    44    22    23 ar  
    45    22    44 1   
    46    23    24 ar  
    47    23    40 1   
    48    24    41 1   
    49    42    45 1   
    50    42    47 1   
    51    42    48 1   
    52    44    49 1   
    53    45    50 1   
    54    45    51 1   
@<TRIPOS>SUBSTRUCTURE
     1 H56         1 TEMP              0 ****  ****    0 ROOT
