@<TRIPOS>MOLECULE
H59
   68    71     1     0     0
SMALL
abcg2


@<TRIPOS>ATOM
      1 C1          35.0330    10.7870    11.0530 ca         1 H59      -0.141300
      2 C2          35.4560    10.7270    12.3780 ca         1 H59      -0.079000
      3 C3          36.6900    10.1860    12.7430 ca         1 H59      -0.107300
      4 C4          37.4810     9.7060    11.7080 ca         1 H59       0.170000
      5 C5          37.1010     9.7370    10.3800 ca         1 H59      -0.141000
      6 C6          35.8660    10.2830    10.0540 ca         1 H59      -0.080000
      7 C7          32.3310     9.2340     8.0920 ce         1 H59      -0.361200
      8 C8          32.3390     8.3720     9.1380 c2         1 H59       0.215900
      9 C9          32.5490     9.0970    10.4430 c5         1 H59       0.125900
     10 N10         32.8250    10.4600     9.9740 n          1 H59      -0.390800
     11 C11         32.7450    10.5470     8.6110 c          1 H59       0.581200
     12 C12         31.8180     8.7590     3.7880 ca         1 H59      -0.305500
     13 C13         32.5870     9.7320     4.4380 ca         1 H59       0.385000
     14 C14         33.1970    10.7290     3.6580 ca         1 H59      -0.152000
     15 C15         33.0500    10.7370     2.2890 ca         1 H59      -0.035000
     16 C16         32.2640     9.7670     1.6510 ca         1 H59       0.203000
     17 C17         31.6420     8.7910     2.4040 ca         1 H59       0.025000
     18 C18         32.0950     8.9440     6.6840 ce         1 H59       0.377000
     19 N19         32.7530     9.7510     5.8040 nu         1 H59      -0.812000
     20 S20         31.0700     7.4340     4.6660 sy         1 H59       1.086600
     21 C21         31.2630     7.9370     6.2950 cf         1 H59      -0.592100
     22 O22         29.6560     7.3540     4.3290 o          1 H59      -0.538500
     23 O23         31.8260     6.2150     4.4020 o          1 H59      -0.538500
     24 S25         33.1360     8.9020    -0.7340 s6         1 H59       1.197100
     25 C26         32.4110     7.2890    -0.7740 c3         1 H59      -0.345100
     26 O27         33.0340     9.5080    -2.0430 o          1 H59      -0.544000
     27 O28         34.4430     8.7890    -0.1230 o          1 H59      -0.544000
     28 O29         32.1940     7.0560     9.1510 oh         1 H59      -0.490100
     29 O30         33.0310    11.5430     7.9400 o          1 H59      -0.573000
     30 C31         33.6890    11.3860    10.7080 c3         1 H59       0.148300
     31 F32         38.6950     9.1730    12.0180 f          1 H59      -0.180000
     32 C33         37.1440    10.1080    14.1720 c3         1 H59      -0.042800
     33 C34         31.3220     8.9700    11.4200 c3         1 H59      -0.029000
     34 C35         31.3840     7.5630    12.0600 c3         1 H59      -0.077400
     35 C36         30.2660     7.2340    13.0490 c3         1 H59      -0.086100
     36 C37         31.4300    10.0310    12.5210 c3         1 H59      -0.088600
     37 C38         30.0160     9.1850    10.6450 c3         1 H59      -0.088600
     38 H2          34.8060    11.1070    13.1590 ha         1 H59       0.116000
     39 H5          37.7650     9.3430     9.6210 ha         1 H59       0.138000
     40 H6          35.5580    10.3140     9.0170 ha         1 H59       0.122000
     41 H9          33.4350     8.7030    10.9490 h1         1 H59       0.093700
     42 H14         33.7940    11.4870     4.1490 ha         1 H59       0.130000
     43 H15         33.5370    11.5000     1.6960 ha         1 H59       0.126000
     44 H17         31.0160     8.0510     1.9250 ha         1 H59       0.142000
     45 HN19        33.2190    10.5540     6.2170 hn         1 H59       0.546000
     46 H21         30.6340     7.3990     6.9900 h4         1 H59       0.232000
     47 HN24        31.9690    10.6940    -0.1800 hn         1 H59       0.494000
     48 H26         32.3450     6.9100     0.2430 h1         1 H59       0.108033
     49 H26A        31.4280     7.3620    -1.2330 h1         1 H59       0.108033
     50 H26B        33.0790     6.6640    -1.3660 h1         1 H59       0.108033
     51 HO29        32.0970     6.7070     8.2480 ho         1 H59       0.506000
     52 H31         33.1950    11.7270    11.6120 h1         1 H59       0.079200
     53 H31A        33.8130    12.2500    10.0550 h1         1 H59       0.079200
     54 H33         38.0940    10.6270    14.3140 hc         1 H59       0.051033
     55 H33A        36.4030    10.5570    14.8320 hc         1 H59       0.051033
     56 H33B        37.2960     9.0710    14.4800 hc         1 H59       0.051033
     57 H35         31.3720     6.8100    11.2740 hc         1 H59       0.047200
     58 H35A        32.3510     7.4680    12.5660 hc         1 H59       0.047200
     59 H36         30.3030     7.8570    13.9440 hc         1 H59       0.036700
     60 H36A        29.2800     7.3530    12.5970 hc         1 H59       0.036700
     61 H36B        30.3550     6.1950    13.3710 hc         1 H59       0.036700
     62 H37         32.3780     9.9580    13.0560 hc         1 H59       0.042867
     63 H37A        31.3300    11.0360    12.1170 hc         1 H59       0.042867
     64 H37B        30.6250     9.8940    13.2430 hc         1 H59       0.042867
     65 H38         29.1730     9.2620    11.3310 hc         1 H59       0.042867
     66 H38A        30.0600    10.1140    10.0730 hc         1 H59       0.042867
     67 H38B        29.8120     8.3660     9.9540 hc         1 H59       0.042867
     68 N24         32.0920     9.7740     0.2320 nu         1 H59      -0.899100
@<TRIPOS>BOND
     1     1     2 ar  
     2     1     6 ar  
     3     1    30 1   
     4     2     3 ar  
     5     2    38 1   
     6     3     4 ar  
     7     3    32 1   
     8     4     5 ar  
     9     4    31 1   
    10     5     6 ar  
    11     5    39 1   
    12     6    40 1   
    13     7     8 2   
    14     7    11 1   
    15     7    18 1   
    16     8     9 1   
    17     8    28 1   
    18     9    10 1   
    19     9    33 1   
    20     9    41 1   
    21    10    11 1   
    22    10    30 1   
    23    11    29 2   
    24    12    13 ar  
    25    12    17 ar  
    26    12    20 1   
    27    13    14 ar  
    28    13    19 1   
    29    14    15 ar  
    30    14    42 1   
    31    15    16 ar  
    32    15    43 1   
    33    16    17 ar  
    34    16    68 1   
    35    17    44 1   
    36    18    19 1   
    37    18    21 2   
    38    19    45 1   
    39    20    21 1   
    40    20    22 2   
    41    20    23 2   
    42    21    46 1   
    43    24    25 1   
    44    24    26 2   
    45    24    27 2   
    46    24    68 1   
    47    25    48 1   
    48    25    49 1   
    49    25    50 1   
    50    28    51 1   
    51    30    52 1   
    52    30    53 1   
    53    32    54 1   
    54    32    55 1   
    55    32    56 1   
    56    33    34 1   
    57    33    36 1   
    58    33    37 1   
    59    34    35 1   
    60    34    57 1   
    61    34    58 1   
    62    35    59 1   
    63    35    60 1   
    64    35    61 1   
    65    36    62 1   
    66    36    63 1   
    67    36    64 1   
    68    37    65 1   
    69    37    66 1   
    70    37    67 1   
    71    47    68 1   
@<TRIPOS>SUBSTRUCTURE
     1 H59         1 TEMP              0 ****  ****    0 ROOT
