@<TRIPOS>MOLECULE
H59
   68    71     1     0     0
SMALL
No Charge or Current Charge


@<TRIPOS>ATOM
      1 C1          35.0830    10.8550    11.1210 ca         1 H59      -0.141300
      2 C2          35.2840    11.0750    12.4990 ca         1 H59      -0.079000
      3 C3          36.4240    10.5610    13.1480 ca         1 H59      -0.107300
      4 C4          37.3690     9.8300    12.4010 ca         1 H59       0.170000
      5 C5          37.1810     9.6180    11.0270 ca         1 H59      -0.141000
      6 C6          36.0420    10.1320    10.3860 ca         1 H59      -0.080000
      7 C7          32.1690     9.2570     7.9140 ce         1 H59      -0.361200
      8 C8          32.3820     8.2970     8.8350 c2         1 H59       0.215900
      9 C9          32.8240     8.9530    10.1900 c5         1 H59       0.125900
     10 N10         33.0260    10.3670     9.7470 n          1 H59      -0.390800
     11 C11         32.5740    10.5620     8.4510 c          1 H59       0.581200
     12 C12         31.4480     8.9630     3.5610 ca         1 H59      -0.305500
     13 C13         32.1820     9.9240     4.2510 ca         1 H59       0.385000
     14 C14         32.9710    10.8350     3.5330 ca         1 H59      -0.152000
     15 C15         33.0390    10.7640     2.1280 ca         1 H59      -0.035000
     16 C16         32.3220     9.7750     1.4280 ca         1 H59       0.203000
     17 C17         31.5080     8.8820     2.1550 ca         1 H59       0.025000
     18 C18         31.6990     9.0570     6.5440 ce         1 H59       0.377000
     19 N19         32.1310     9.9870     5.6310 nu         1 H59      -0.812000
     20 S20         30.3880     7.8830     4.4800 sy         1 H59       1.086600
     21 C21         30.8970     8.0650     6.1330 cf         1 H59      -0.592100
     22 O22         29.0210     8.4110     4.3900 o          1 H59      -0.538500
     23 O23         30.6600     6.4990     4.0760 o          1 H59      -0.538500
     24 S25         33.1940     8.5610    -0.8440 s6         1 H59       1.197100
     25 C26         32.3770     7.0190    -0.4970 c3         1 H59      -0.345100
     26 O27         32.9720     8.9250    -2.2430 o          1 H59      -0.544000
     27 O28         34.5490     8.5250    -0.2930 o          1 H59      -0.544000
     28 O29         32.2910     6.9660     8.5930 oh         1 H59      -0.490100
     29 O30         32.5910    11.6240     7.8430 o          1 H59      -0.573000
     30 C31         33.8430    11.4030    10.4220 c3         1 H59       0.148300
     31 F32         38.4710     9.3270    13.0020 f          1 H59      -0.180000
     32 C33         36.6270    10.7940    14.6410 c3         1 H59      -0.042800
     33 C34         31.7500     8.7430    11.3700 c3         1 H59      -0.029000
     34 C35         31.4700     7.2040    11.6880 c3         1 H59      -0.077400
     35 C36         30.5470     6.8580    12.8850 c3         1 H59      -0.086100
     36 C37         32.2760     9.4130    12.6720 c3         1 H59      -0.088600
     37 C38         30.4050     9.4280    10.9860 c3         1 H59      -0.088600
     38 H2          34.5510    11.6430    13.0680 ha         1 H59       0.116000
     39 H5          37.9190     9.0560    10.4610 ha         1 H59       0.138000
     40 H6          35.9010     9.9630     9.3200 ha         1 H59       0.122000
     41 H9          33.7750     8.5130    10.5150 h1         1 H59       0.093700
     42 H14         33.5410    11.5950     4.0600 ha         1 H59       0.130000
     43 H15         33.6600    11.4720     1.5860 ha         1 H59       0.126000
     44 H17         30.9090     8.1460     1.6260 ha         1 H59       0.142000
     45 HN19        32.5740    10.8040     6.0580 hn         1 H59       0.546000
     46 H21         30.4410     7.3200     6.7830 h4         1 H59       0.232000
     47 HN24        32.7430    10.5620    -0.4070 hn         1 H59       0.494000
     48 H26         32.5390     6.7850     0.5600 h1         1 H59       0.108033
     49 H26A        31.3150     7.1500    -0.7280 h1         1 H59       0.108033
     50 H26B        32.8320     6.2600    -1.1400 h1         1 H59       0.108033
     51 HO29        32.1370     6.8710     7.6310 ho         1 H59       0.506000
     52 H31         33.2100    11.9470    11.1340 h1         1 H59       0.079200
     53 H31A        34.1800    12.1410     9.6830 h1         1 H59       0.079200
     54 H33         37.5560    11.3460    14.8280 hc         1 H59       0.051033
     55 H33A        35.8050    11.3710    15.0810 hc         1 H59       0.051033
     56 H33B        36.6880     9.8420    15.1820 hc         1 H59       0.051033
     57 H35         31.0200     6.7370    10.8050 hc         1 H59       0.047200
     58 H35A        32.4310     6.6970    11.8420 hc         1 H59       0.047200
     59 H36         30.9980     7.1500    13.8400 hc         1 H59       0.036700
     60 H36A        29.5660     7.3380    12.7940 hc         1 H59       0.036700
     61 H36B        30.3810     5.7750    12.9230 hc         1 H59       0.036700
     62 H37         33.2380     8.9820    12.9740 hc         1 H59       0.042867
     63 H37A        32.4030    10.4900    12.5440 hc         1 H59       0.042867
     64 H37B        31.5730     9.2970    13.5050 hc         1 H59       0.042867
     65 H38         29.6810     9.3860    11.8070 hc         1 H59       0.042867
     66 H38A        30.5510    10.4880    10.7470 hc         1 H59       0.042867
     67 H38B        29.9510     8.9460    10.1120 hc         1 H59       0.042867
     68 N24         32.3910     9.7200     0.0340 nu         1 H59      -0.899100
@<TRIPOS>BOND
     1     1     2 ar  
     2     1     6 ar  
     3     1    30 1   
     4     2     3 ar  
     5     2    38 1   
     6     3     4 ar  
     7     3    32 1   
     8     4     5 ar  
     9     4    31 1   
    10     5     6 ar  
    11     5    39 1   
    12     6    40 1   
    13     7     8 2   
    14     7    11 1   
    15     7    18 1   
    16     8     9 1   
    17     8    28 1   
    18     9    10 1   
    19     9    33 1   
    20     9    41 1   
    21    10    11 1   
    22    10    30 1   
    23    11    29 2   
    24    12    13 ar  
    25    12    17 ar  
    26    12    20 1   
    27    13    14 ar  
    28    13    19 1   
    29    14    15 ar  
    30    14    42 1   
    31    15    16 ar  
    32    15    43 1   
    33    16    17 ar  
    34    16    68 1   
    35    17    44 1   
    36    18    19 1   
    37    18    21 2   
    38    19    45 1   
    39    20    21 1   
    40    20    22 2   
    41    20    23 2   
    42    21    46 1   
    43    24    25 1   
    44    24    26 2   
    45    24    27 2   
    46    24    68 1   
    47    25    48 1   
    48    25    49 1   
    49    25    50 1   
    50    28    51 1   
    51    30    52 1   
    52    30    53 1   
    53    32    54 1   
    54    32    55 1   
    55    32    56 1   
    56    33    34 1   
    57    33    36 1   
    58    33    37 1   
    59    34    35 1   
    60    34    57 1   
    61    34    58 1   
    62    35    59 1   
    63    35    60 1   
    64    35    61 1   
    65    36    62 1   
    66    36    63 1   
    67    36    64 1   
    68    37    65 1   
    69    37    66 1   
    70    37    67 1   
    71    47    68 1   
@<TRIPOS>SUBSTRUCTURE
     1 H59         1 TEMP              0 ****  ****    0 ROOT
