@<TRIPOS>MOLECULE
H5A
   26    26     1     0     0
SMALL
No Charge or Current Charge


@<TRIPOS>ATOM
      1 C4          -1.5310     0.1520     0.0940 ca         1 H5A      -0.073600
      2 C5          -0.8080     1.3640     0.1140 ca         1 H5A      -0.193000
      3 C6           0.5970     1.3780    -0.0120 ca         1 H5A       0.117600
      4 C7           1.3170     0.1680    -0.1630 ca         1 H5A      -0.005900
      5 C8           3.6190    -0.8130    -0.4410 c3         1 H5A       0.153900
      6 C10         -3.0560     0.1440     0.2310 c          1 H5A       0.711600
      7 C1           0.6110    -3.5490    -0.3620 c3         1 H5A       0.152900
      8 C2           0.6000    -1.0680    -0.1860 ca         1 H5A       0.117600
      9 C3          -0.8090    -1.0540    -0.0570 ca         1 H5A      -0.193000
     10 O2           2.7040     0.2860    -0.2800 os         1 H5A      -0.337100
     11 O3           1.3110     2.5670     0.0070 os         1 H5A      -0.346600
     12 C9           0.6810     3.8520     0.1560 c3         1 H5A       0.152900
     13 O4          -3.6400     1.2120     0.3600 o          1 H5A      -0.718000
     14 O5          -3.6430    -0.9300     0.2090 o          1 H5A      -0.718000
     15 H1          -1.3580     2.2930     0.2300 ha         1 H5A       0.139000
     16 H2           3.5670    -1.4960     0.4170 h1         1 H5A       0.020033
     17 H3           3.4060    -1.3690    -1.3630 h1         1 H5A       0.020033
     18 H4           4.6470    -0.4380    -0.5080 h1         1 H5A       0.020033
     19 H5           0.0660    -3.7290     0.5730 h1         1 H5A       0.031533
     20 H6          -0.0950    -3.6030    -1.2010 h1         1 H5A       0.031533
     21 H7           1.3470    -4.3530    -0.4860 h1         1 H5A       0.031533
     22 H8          -1.3690    -1.9830    -0.0720 ha         1 H5A       0.139000
     23 H9           1.4360     4.6480     0.1430 h1         1 H5A       0.031533
     24 H10         -0.0230     4.0390    -0.6660 h1         1 H5A       0.031533
     25 H11          0.1380     3.9140     1.1080 h1         1 H5A       0.031533
     26 O1           1.2720    -2.2710    -0.3320 os         1 H5A      -0.346600
@<TRIPOS>BOND
     1     1     2 ar  
     2     1     6 1   
     3     1     9 ar  
     4     2     3 ar  
     5     2    15 1   
     6     3     4 ar  
     7     3    11 1   
     8     4     8 ar  
     9     4    10 1   
    10     5    10 1   
    11     5    16 1   
    12     5    17 1   
    13     5    18 1   
    14     6    13 1   
    15     6    14 1   
    16     7    19 1   
    17     7    20 1   
    18     7    21 1   
    19     7    26 1   
    20     8     9 ar  
    21     8    26 1   
    22     9    22 1   
    23    11    12 1   
    24    12    23 1   
    25    12    24 1   
    26    12    25 1   
@<TRIPOS>SUBSTRUCTURE
     1 H5A         1 TEMP              0 ****  ****    0 ROOT
