@<TRIPOS>MOLECULE
H5A
   26    26     1     0     0
SMALL
abcg2


@<TRIPOS>ATOM
      1 C4          -1.4700     0.0780    -0.0130 ca         1 H5A      -0.073600
      2 C5          -0.7240     1.2500     0.0310 ca         1 H5A      -0.193000
      3 C6           0.6620     1.1910     0.1420 ca         1 H5A       0.117600
      4 C7           1.3040    -0.0470     0.2170 ca         1 H5A      -0.005900
      5 C8           3.3580    -0.2330    -0.8770 c3         1 H5A       0.153900
      6 C10         -2.9900     0.1460    -0.1370 c          1 H5A       0.711600
      7 C1           0.5580    -3.5910     0.1400 c3         1 H5A       0.152900
      8 C2           0.5500    -1.2230     0.1710 ca         1 H5A       0.117600
      9 C3          -0.8350    -1.1570     0.0570 ca         1 H5A      -0.193000
     10 O2           2.6570    -0.1040     0.3520 os         1 H5A      -0.337100
     11 O3           1.4720     2.2670     0.1910 os         1 H5A      -0.346600
     12 C9           0.8800     3.5490     0.1560 c3         1 H5A       0.152900
     13 O4          -3.4970     1.2830    -0.1820 o          1 H5A      -0.718000
     14 O5          -3.5950    -0.9420    -0.1830 o          1 H5A      -0.718000
     15 H1          -1.2440     2.1970    -0.0270 ha         1 H5A       0.139000
     16 H2           3.0880    -1.1500    -1.4060 h1         1 H5A       0.020033
     17 H3           3.1780     0.6190    -1.5380 h1         1 H5A       0.020033
     18 H4           4.4200    -0.2690    -0.6390 h1         1 H5A       0.020033
     19 H5          -0.1620    -3.7300     0.9510 h1         1 H5A       0.031533
     20 H6           0.0300    -3.6730    -0.8140 h1         1 H5A       0.031533
     21 H7           1.3040    -4.3800     0.1970 h1         1 H5A       0.031533
     22 H8          -1.4410    -2.0510     0.0220 ha         1 H5A       0.139000
     23 H9           1.6930     4.2670     0.2380 h1         1 H5A       0.031533
     24 H10          0.3440     3.7290    -0.7800 h1         1 H5A       0.031533
     25 H11          0.1900     3.7040     0.9900 h1         1 H5A       0.031533
     26 O1           1.2560    -2.3680     0.2540 os         1 H5A      -0.346600
@<TRIPOS>BOND
     1     1     2 ar  
     2     1     6 1   
     3     1     9 ar  
     4     2     3 ar  
     5     2    15 1   
     6     3     4 ar  
     7     3    11 1   
     8     4     8 ar  
     9     4    10 1   
    10     5    10 1   
    11     5    16 1   
    12     5    17 1   
    13     5    18 1   
    14     6    13 1   
    15     6    14 1   
    16     7    19 1   
    17     7    20 1   
    18     7    21 1   
    19     7    26 1   
    20     8     9 ar  
    21     8    26 1   
    22     9    22 1   
    23    11    12 1   
    24    12    23 1   
    25    12    24 1   
    26    12    25 1   
@<TRIPOS>SUBSTRUCTURE
     1 H5A         1 TEMP              0 ****  ****    0 ROOT
