@<TRIPOS>MOLECULE
H5B
   21    22     1     0     0
SMALL
bcc


@<TRIPOS>ATOM
      1 C2          -2.9740    -1.2510     0.0980 c          1 H5B       0.940200
      2 C4          -1.6820    -0.4870     0.0650 ca         1 H5B      -0.324600
      3 C5          -0.4500    -1.1630     0.0160 ca         1 H5B       0.019000
      4 C6           0.7310    -0.4820    -0.0150 ca         1 H5B      -0.118900
      5 C8           0.7670     0.9410    -0.0010 ca         1 H5B       0.038000
      6 C11          0.6850     3.7570     0.0320 ca         1 H5B      -0.187000
      7 C12         -0.4840     3.0450     0.0640 ca         1 H5B      -0.068000
      8 O1          -2.9570    -2.4820     0.0750 o          1 H5B      -0.789800
      9 O3          -4.0270    -0.5320     0.1510 o          1 H5B      -0.789800
     10 BR7          2.3430    -1.4800    -0.0770 br         1 H5B      -0.166100
     11 C9           1.9550     1.7070    -0.0320 ca         1 H5B      -0.147000
     12 C10          1.9140     3.0770    -0.0160 ca         1 H5B      -0.122000
     13 C13         -0.4740     1.6340     0.0490 ca         1 H5B      -0.110000
     14 C14         -1.7020     0.9010     0.0830 ca         1 H5B       0.255100
     15 O15         -2.8400     1.5650     0.1330 oh         1 H5B      -0.596100
     16 H1          -0.4660    -2.2460     0.0040 ha         1 H5B       0.156000
     17 H2           0.6650     4.8380     0.0440 ha         1 H5B       0.113000
     18 H3          -1.4300     3.5680     0.1020 ha         1 H5B       0.140000
     19 H5           2.9170     1.2150    -0.0710 ha         1 H5B       0.129000
     20 H6           2.8380     3.6390    -0.0420 ha         1 H5B       0.109000
     21 H7          -3.5540     0.7950     0.1500 ho         1 H5B       0.520000
@<TRIPOS>BOND
     1     1     2 1   
     2     1     8 1   
     3     1     9 1   
     4     2     3 ar  
     5     2    14 ar  
     6     3     4 ar  
     7     3    16 1   
     8     4     5 ar  
     9     4    10 1   
    10     5    11 ar  
    11     5    13 ar  
    12     6     7 ar  
    13     6    12 ar  
    14     6    17 1   
    15     7    13 ar  
    16     7    18 1   
    17    11    12 ar  
    18    11    19 1   
    19    12    20 1   
    20    13    14 ar  
    21    14    15 1   
    22    15    21 1   
@<TRIPOS>SUBSTRUCTURE
     1 H5B         1 TEMP              0 ****  ****    0 ROOT
