@<TRIPOS>MOLECULE
H5B
   21    22     1     0     0
SMALL
No Charge or Current Charge


@<TRIPOS>ATOM
      1 C2          -2.9930    -1.2890     0.1010 c          1 H5B       0.729600
      2 C4          -1.7130    -0.4880     0.0670 ca         1 H5B      -0.324600
      3 C5          -0.4760    -1.1650     0.0170 ca         1 H5B       0.037000
      4 C6           0.7380    -0.4610    -0.0160 ca         1 H5B      -0.118900
      5 C8           0.7440     0.9530    -0.0000 ca         1 H5B       0.038000
      6 C11          0.7200     3.7770     0.0330 ca         1 H5B      -0.169000
      7 C12         -0.4890     3.0630     0.0660 ca         1 H5B      -0.050000
      8 O1          -2.9210    -2.5060     0.0850 o          1 H5B      -0.684500
      9 O3          -4.0520    -0.6770     0.1440 o          1 H5B      -0.684500
     10 Br7          2.3570    -1.4980    -0.0830 br         1 H5B      -0.166100
     11 C9           1.9530     1.6870    -0.0330 ca         1 H5B      -0.129000
     12 C10          1.9390     3.0900    -0.0170 ca         1 H5B      -0.104000
     13 C13         -0.4900     1.6480     0.0500 ca         1 H5B      -0.110000
     14 C14         -1.7060     0.9230     0.0830 ca         1 H5B       0.255100
     15 O15         -2.8940     1.5870     0.1310 oh         1 H5B      -0.635100
     16 H1          -0.4430    -2.2540     0.0030 ha         1 H5B       0.138000
     17 H2           0.7080     4.8640     0.0460 ha         1 H5B       0.095000
     18 H3          -1.4220     3.6210     0.1040 ha         1 H5B       0.122000
     19 H5           2.9150     1.1860    -0.0720 ha         1 H5B       0.111000
     20 H6           2.8750     3.6430    -0.0420 ha         1 H5B       0.091000
     21 H7          -3.5770     0.8540     0.1460 ho         1 H5B       0.559000
@<TRIPOS>BOND
     1     1     2 1   
     2     1     8 1   
     3     1     9 1   
     4     2     3 ar  
     5     2    14 ar  
     6     3     4 ar  
     7     3    16 1   
     8     4     5 ar  
     9     4    10 1   
    10     5    11 ar  
    11     5    13 ar  
    12     6     7 ar  
    13     6    12 ar  
    14     6    17 1   
    15     7    13 ar  
    16     7    18 1   
    17    11    12 ar  
    18    11    19 1   
    19    12    20 1   
    20    13    14 ar  
    21    14    15 1   
    22    15    21 1   
@<TRIPOS>SUBSTRUCTURE
     1 H5B         1 TEMP              0 ****  ****    0 ROOT
