@<TRIPOS>MOLECULE
H5C
   35    37     1     0     0
SMALL
No Charge or Current Charge


@<TRIPOS>ATOM
      1 C02        -11.1550   -52.0330    -2.4060 c          1 H5C       0.528500
      2 C03        -10.5110   -51.4420    -3.6190 cc         1 H5C       0.113500
      3 C05         -9.8520   -50.9300    -5.5980 cd         1 H5C       0.402400
      4 C07         -8.2460   -49.0150    -5.0760 c5         1 H5C       0.273300
      5 C08         -6.9080   -49.4640    -5.7480 c5         1 H5C       0.138300
      6 C10         -6.0150   -50.9270    -3.9600 c3         1 H5C       0.136900
      7 C11         -6.5310   -48.1620    -6.5290 c5         1 H5C       0.144300
      8 C13         -7.9420   -47.8430    -7.1240 c5         1 H5C       0.123300
      9 C14         -8.3220   -48.7070    -8.3670 c3         1 H5C       0.152600
     10 C17         -9.6480   -50.4060    -3.4610 cd         1 H5C       0.029600
     11 C19         -9.9080   -50.3730    -1.0580 c          1 H5C       0.633000
     12 N04        -10.6440   -51.7780    -4.9430 nc         1 H5C      -0.582000
     13 N06         -9.1990   -50.0660    -4.7190 na         1 H5C      -0.201500
     14 N18         -9.3600   -49.8900    -2.2170 ns         1 H5C      -0.501600
     15 N20        -10.7740   -51.4210    -1.2310 ns         1 H5C      -0.483500
     16 O01        -11.9470   -52.9660    -2.4070 o          1 H5C      -0.495000
     17 O09         -5.8660   -49.7460    -4.7690 os         1 H5C      -0.416000
     18 O12         -6.0710   -47.0880    -5.6790 oh         1 H5C      -0.688000
     19 O15         -9.5520   -48.2540    -8.9580 oh         1 H5C      -0.698000
     20 O16         -8.8600   -48.0970    -6.0190 os         1 H5C      -0.425000
     21 O21         -9.6460   -49.9080     0.0330 o          1 H5C      -0.547000
     22 H1          -9.7000   -50.8880    -6.6700 h5         1 H5C       0.064100
     23 H2          -8.0180   -48.4660    -4.1550 h2         1 H5C       0.088700
     24 H3          -7.0360   -50.3270    -6.4130 h1         1 H5C       0.053700
     25 H4          -5.1260   -51.0710    -3.3320 h1         1 H5C       0.041033
     26 H5          -6.8840   -50.8470    -3.2970 h1         1 H5C       0.041033
     27 H6          -6.1360   -51.8190    -4.5890 h1         1 H5C       0.041033
     28 H7          -5.7950   -48.3740    -7.3180 h1         1 H5C       0.065700
     29 H8          -8.0160   -46.7870    -7.4160 h1         1 H5C       0.089700
     30 H10         -7.5100   -48.6280    -9.1020 h1         1 H5C       0.022700
     31 H11         -8.4030   -49.7630    -8.0830 h1         1 H5C       0.022700
     32 H12         -8.7280   -49.1080    -2.0850 hn         1 H5C       0.469000
     33 H13        -11.1850   -51.7880    -0.3870 hn         1 H5C       0.344500
     34 H14         -5.6470   -46.4130    -6.2580 ho         1 H5C       0.511000
     35 H15         -9.7190   -48.8150    -9.7510 ho         1 H5C       0.510000
@<TRIPOS>BOND
     1     1     2 1   
     2     1    15 1   
     3     1    16 2   
     4     2    10 2   
     5     2    12 1   
     6     3    12 2   
     7     3    13 1   
     8     3    22 1   
     9     4     5 1   
    10     4    13 1   
    11     4    20 1   
    12     4    23 1   
    13     5     7 1   
    14     5    17 1   
    15     5    24 1   
    16     6    17 1   
    17     6    25 1   
    18     6    26 1   
    19     6    27 1   
    20     7     8 1   
    21     7    18 1   
    22     7    28 1   
    23     8     9 1   
    24     8    20 1   
    25     8    29 1   
    26     9    19 1   
    27     9    30 1   
    28     9    31 1   
    29    10    13 1   
    30    10    14 1   
    31    11    14 1   
    32    11    15 1   
    33    11    21 2   
    34    14    32 1   
    35    15    33 1   
    36    18    34 1   
    37    19    35 1   
@<TRIPOS>SUBSTRUCTURE
     1 H5C         1 TEMP              0 ****  ****    0 ROOT
