@<TRIPOS>MOLECULE
H5C
   35    37     1     0     0
SMALL
bcc


@<TRIPOS>ATOM
      1 C02        -11.0940   -52.0380    -2.4110 c          1 H5C       0.671000
      2 C03        -10.4160   -51.4980    -3.5540 cc         1 H5C       0.178800
      3 C05         -9.6480   -51.0900    -5.4810 cd         1 H5C       0.402400
      4 C07         -8.2640   -49.0280    -5.0530 c5         1 H5C       0.220800
      5 C08         -6.9200   -49.4780    -5.6530 c5         1 H5C       0.115100
      6 C10         -5.9980   -51.0370    -4.1410 c3         1 H5C       0.113700
      7 C11         -6.5820   -48.2690    -6.5160 c5         1 H5C       0.121100
      8 C13         -7.9630   -47.9040    -7.0660 c5         1 H5C       0.100100
      9 C14         -8.2750   -48.5830    -8.3840 c3         1 H5C       0.129400
     10 C17         -9.6340   -50.3800    -3.4230 cd         1 H5C       0.015000
     11 C19        -10.0510   -50.1670    -1.1040 c          1 H5C       0.842500
     12 N04        -10.4130   -51.9240    -4.8550 nc         1 H5C      -0.582000
     13 N06         -9.1310   -50.1160    -4.6510 na         1 H5C      -0.222900
     14 N18         -9.4350   -49.7250    -2.2510 ns         1 H5C      -0.455100
     15 N20        -10.8290   -51.2940    -1.2590 ns         1 H5C      -0.617500
     16 O01        -11.8200   -53.0110    -2.3750 o          1 H5C      -0.570500
     17 O09         -5.9230   -49.7570    -4.7320 os         1 H5C      -0.369600
     18 O12         -6.0630   -47.2750    -5.6730 oh         1 H5C      -0.565800
     19 O15         -9.5650   -48.1970    -8.7830 oh         1 H5C      -0.575800
     20 O16         -8.9010   -48.2980    -6.0560 os         1 H5C      -0.378600
     21 O21         -9.9160   -49.6070    -0.0390 o          1 H5C      -0.622500
     22 H1          -9.4190   -51.1120    -6.5360 h5         1 H5C       0.064100
     23 H2          -8.0770   -48.4130    -4.1650 h2         1 H5C       0.088700
     24 H3          -7.0940   -50.3370    -6.3190 h1         1 H5C       0.053700
     25 H4          -5.0450   -51.2230    -3.6470 h1         1 H5C       0.041033
     26 H5          -6.7870   -51.1120    -3.3870 h1         1 H5C       0.041033
     27 H6          -6.1600   -51.8220    -4.8870 h1         1 H5C       0.041033
     28 H7          -5.8830   -48.5270    -7.3210 h1         1 H5C       0.065700
     29 H8          -8.0480   -46.8210    -7.2050 h1         1 H5C       0.089700
     30 H10         -7.5100   -48.2690    -9.1070 h1         1 H5C       0.022700
     31 H11         -8.1880   -49.6730    -8.2800 h1         1 H5C       0.022700
     32 H12         -8.8570   -48.8990    -2.1730 hn         1 H5C       0.355500
     33 H13        -11.2780   -51.6150    -0.4100 hn         1 H5C       0.344500
     34 H14         -5.9090   -46.4810    -6.1940 ho         1 H5C       0.412000
     35 H15         -9.7650   -48.6300    -9.6180 ho         1 H5C       0.411000
@<TRIPOS>BOND
     1     1     2 1   
     2     1    15 1   
     3     1    16 2   
     4     2    10 2   
     5     2    12 1   
     6     3    12 2   
     7     3    13 1   
     8     3    22 1   
     9     4     5 1   
    10     4    13 1   
    11     4    20 1   
    12     4    23 1   
    13     5     7 1   
    14     5    17 1   
    15     5    24 1   
    16     6    17 1   
    17     6    25 1   
    18     6    26 1   
    19     6    27 1   
    20     7     8 1   
    21     7    18 1   
    22     7    28 1   
    23     8     9 1   
    24     8    20 1   
    25     8    29 1   
    26     9    19 1   
    27     9    30 1   
    28     9    31 1   
    29    10    13 1   
    30    10    14 1   
    31    11    14 1   
    32    11    15 1   
    33    11    21 2   
    34    14    32 1   
    35    15    33 1   
    36    18    34 1   
    37    19    35 1   
@<TRIPOS>SUBSTRUCTURE
     1 H5C         1 TEMP              0 ****  ****    0 ROOT
