@<TRIPOS>MOLECULE
H5D
   46    48     1     0     0
SMALL
No Charge or Current Charge


@<TRIPOS>ATOM
      1 N1           2.2260     1.0920     0.1080 ns         1 H5D      -0.151000
      2 C4          -2.9940    -2.1690    -0.6170 c5         1 H5D      -0.090400
      3 C5          -3.1390    -0.9880     0.3870 c5         1 H5D       0.161000
      4 C6          -2.6250     0.2770    -0.3160 ca         1 H5D      -0.078300
      5 C7          -3.3050     0.8520    -1.4130 ca         1 H5D      -0.085000
      6 C8          -2.8070     2.0070    -2.0370 ca         1 H5D      -0.110000
      7 C10         -0.9340     2.0460    -0.4810 ca         1 H5D      -0.079300
      8 C13          3.3630     0.2730    -0.1360 ca         1 H5D      -0.005000
      9 C15          5.2470    -0.5100    -1.4890 ca         1 H5D      -0.077000
     10 C17          4.8390    -1.4860     0.6960 ca         1 H5D       0.150000
     11 Cl           5.2770    -2.6250     1.9620 cl         1 H5D      -0.205000
     12 C16          5.6000    -1.4210    -0.4800 ca         1 H5D      -0.133000
     13 C14          4.1350     0.3340    -1.3190 ca         1 H5D      -0.134000
     14 C18          3.7290    -0.6440     0.8670 ca         1 H5D      -0.170000
     15 C12          1.5760     2.0480    -0.6630 c          1 H5D       0.607100
     16 O1           1.9100     2.3650    -1.8000 o          1 H5D      -0.566100
     17 C11          0.3580     2.6840     0.0200 c3         1 H5D      -0.110100
     18 C9          -1.6230     2.6030    -1.5740 ca         1 H5D      -0.078000
     19 C19         -1.4390     0.8870     0.1390 ca         1 H5D      -0.084000
     20 C3          -4.1510    -3.0940    -0.1700 c5         1 H5D      -0.095400
     21 C2          -5.3140    -2.0850     0.0170 c5         1 H5D       0.106000
     22 N           -4.6070    -0.9060     0.5650 n          1 H5D      -0.422800
     23 C1          -5.2360     0.0950     1.3330 c          1 H5D       0.604100
     24 O           -4.5860     0.9220     1.9580 o          1 H5D      -0.598100
     25 C           -6.7660     0.1470     1.3420 c3         1 H5D      -0.176100
     26 H1           1.8100     0.9470     1.0190 hn         1 H5D       0.151000
     27 H3          -2.0130    -2.6510    -0.5500 hc         1 H5D       0.058700
     28 H4          -2.6310    -1.1830     1.3410 h1         1 H5D       0.064700
     29 H5          -4.2230     0.4020    -1.7860 ha         1 H5D       0.113000
     30 H6          -3.3380     2.4400    -2.8810 ha         1 H5D       0.113000
     31 H7           5.8360    -0.4570    -2.4020 ha         1 H5D       0.119000
     32 H8           6.4590    -2.0750    -0.6090 ha         1 H5D       0.131000
     33 H9           3.8940     1.0280    -2.1190 ha         1 H5D       0.152000
     34 H10          3.1510    -0.7080     1.7860 ha         1 H5D       0.124000
     35 H11          0.3510     3.7570    -0.2030 hc         1 H5D       0.066700
     36 H12          0.4260     2.5410     1.1060 hc         1 H5D       0.066700
     37 H13         -1.2420     3.4950    -2.0660 ha         1 H5D       0.115000
     38 H14         -0.9060     0.4530     0.9830 ha         1 H5D       0.107000
     39 H15         -4.3850    -3.8710    -0.9060 hc         1 H5D       0.055200
     40 H16         -3.9110    -3.5970     0.7740 hc         1 H5D       0.055200
     41 H17         -5.7910    -1.8360    -0.9410 h1         1 H5D       0.045200
     42 H18         -6.0790    -2.4790     0.6990 h1         1 H5D       0.045200
     43 H19         -7.1490    -0.7640     1.8150 hc         1 H5D       0.058700
     44 H20         -7.1520     1.0380     1.8490 hc         1 H5D       0.058700
     45 H21         -7.1420     0.0650     0.3160 hc         1 H5D       0.058700
     46 H2          -3.1330    -1.8580    -1.6590 hc         1 H5D       0.058700
@<TRIPOS>BOND
     1     1     8 1   
     2     1    15 1   
     3     1    26 1   
     4     2     3 1   
     5     2    20 1   
     6     2    27 1   
     7     2    46 1   
     8     3     4 1   
     9     3    22 1   
    10     3    28 1   
    11     4     5 ar  
    12     4    19 ar  
    13     5     6 ar  
    14     5    29 1   
    15     6    18 ar  
    16     6    30 1   
    17     7    17 1   
    18     7    18 ar  
    19     7    19 ar  
    20     8    13 ar  
    21     8    14 ar  
    22     9    12 ar  
    23     9    13 ar  
    24     9    31 1   
    25    10    11 1   
    26    10    12 ar  
    27    10    14 ar  
    28    12    32 1   
    29    13    33 1   
    30    14    34 1   
    31    15    16 2   
    32    15    17 1   
    33    17    35 1   
    34    17    36 1   
    35    18    37 1   
    36    19    38 1   
    37    20    21 1   
    38    20    39 1   
    39    20    40 1   
    40    21    22 1   
    41    21    41 1   
    42    21    42 1   
    43    22    23 1   
    44    23    24 2   
    45    23    25 1   
    46    25    43 1   
    47    25    44 1   
    48    25    45 1   
@<TRIPOS>SUBSTRUCTURE
     1 H5D         1 TEMP              0 ****  ****    0 ROOT
