@<TRIPOS>MOLECULE
H5D
   46    48     1     0     0
SMALL
abcg2


@<TRIPOS>ATOM
      1 N1           2.6480     0.8650     0.2900 ns         1 H5D      -0.151000
      2 C4          -3.4380    -2.2100    -0.5320 c5         1 H5D      -0.090400
      3 C5          -3.6270    -0.9690     0.3560 c5         1 H5D       0.161000
      4 C6          -2.8880     0.2290    -0.1830 ca         1 H5D      -0.078300
      5 C7          -3.4050     0.9910    -1.2260 ca         1 H5D      -0.085000
      6 C8          -2.6790     2.0540    -1.7420 ca         1 H5D      -0.110000
      7 C10         -0.8880     1.6040    -0.1970 ca         1 H5D      -0.079300
      8 C13          3.8550     0.2930    -0.1130 ca         1 H5D      -0.005000
      9 C15          5.4440    -0.5290    -1.7180 ca         1 H5D      -0.077000
     10 C17          5.9760    -0.5940     0.5940 ca         1 H5D       0.150000
     11 CL           7.0700    -0.9860     1.8800 cl         1 H5D      -0.205000
     12 C16          6.3450    -0.8540    -0.7170 ca         1 H5D      -0.133000
     13 C14          4.2080     0.0380    -1.4400 ca         1 H5D      -0.134000
     14 C18          4.7540    -0.0300     0.9070 ca         1 H5D      -0.170000
     15 C12          1.5740     1.2320    -0.4570 c          1 H5D       0.607100
     16 O1           1.4930     1.0770    -1.6590 o          1 H5D      -0.566100
     17 C11          0.4760     1.9050     0.3500 c3         1 H5D      -0.110100
     18 C9          -1.4240     2.3600    -1.2330 ca         1 H5D      -0.078000
     19 C19         -1.6320     0.5470     0.3200 ca         1 H5D      -0.084000
     20 C3          -4.7490    -2.9720    -0.3900 c5         1 H5D      -0.095400
     21 C2          -5.7800    -1.8540    -0.3380 c5         1 H5D       0.106000
     22 N           -5.0760    -0.7990     0.3840 n          1 H5D      -0.422800
     23 C1          -5.6460     0.1590     1.1380 c          1 H5D       0.604100
     24 O           -4.9730     0.9170     1.8250 o          1 H5D      -0.598100
     25 C           -7.1520     0.2480     1.0870 c3         1 H5D      -0.176100
     26 H1           2.5670     1.0230     1.2830 hn         1 H5D       0.151000
     27 H3          -2.5620    -2.7830    -0.2340 hc         1 H5D       0.058700
     28 H4          -3.2650    -1.1800     1.3680 h1         1 H5D       0.064700
     29 H5          -4.3850     0.7650    -1.6310 ha         1 H5D       0.113000
     30 H6          -3.0950     2.6490    -2.5440 ha         1 H5D       0.113000
     31 H7           5.7110    -0.7200    -2.7490 ha         1 H5D       0.119000
     32 H8           7.3040    -1.2950    -0.9510 ha         1 H5D       0.131000
     33 H9           3.5400     0.2730    -2.2500 ha         1 H5D       0.152000
     34 H10          4.4930     0.1590     1.9410 ha         1 H5D       0.124000
     35 H11          0.6730     2.9810     0.3070 hc         1 H5D       0.066700
     36 H12          0.5400     1.6240     1.4030 hc         1 H5D       0.066700
     37 H13         -0.8660     3.1960    -1.6350 ha         1 H5D       0.115000
     38 H14         -1.2250    -0.0400     1.1380 ha         1 H5D       0.107000
     39 H15         -4.9290    -3.6670    -1.2090 hc         1 H5D       0.055200
     40 H16         -4.7660    -3.5410     0.5420 hc         1 H5D       0.055200
     41 H17         -6.0540    -1.5240    -1.3450 h1         1 H5D       0.045200
     42 H18         -6.6920    -2.1510     0.1770 h1         1 H5D       0.045200
     43 H19         -7.6100    -0.6100     1.5820 hc         1 H5D       0.058700
     44 H20         -7.4820     1.1510     1.5960 hc         1 H5D       0.058700
     45 H21         -7.5230     0.2660     0.0620 hc         1 H5D       0.058700
     46 H2          -3.2930    -1.9070    -1.5720 hc         1 H5D       0.058700
@<TRIPOS>BOND
     1     1     8 1   
     2     1    15 1   
     3     1    26 1   
     4     2     3 1   
     5     2    20 1   
     6     2    27 1   
     7     2    46 1   
     8     3     4 1   
     9     3    22 1   
    10     3    28 1   
    11     4     5 ar  
    12     4    19 ar  
    13     5     6 ar  
    14     5    29 1   
    15     6    18 ar  
    16     6    30 1   
    17     7    17 1   
    18     7    18 ar  
    19     7    19 ar  
    20     8    13 ar  
    21     8    14 ar  
    22     9    12 ar  
    23     9    13 ar  
    24     9    31 1   
    25    10    11 1   
    26    10    12 ar  
    27    10    14 ar  
    28    12    32 1   
    29    13    33 1   
    30    14    34 1   
    31    15    16 2   
    32    15    17 1   
    33    17    35 1   
    34    17    36 1   
    35    18    37 1   
    36    19    38 1   
    37    20    21 1   
    38    20    39 1   
    39    20    40 1   
    40    21    22 1   
    41    21    41 1   
    42    21    42 1   
    43    22    23 1   
    44    23    24 2   
    45    23    25 1   
    46    25    43 1   
    47    25    44 1   
    48    25    45 1   
@<TRIPOS>SUBSTRUCTURE
     1 H5D         1 TEMP              0 ****  ****    0 ROOT
