@<TRIPOS>MOLECULE
H5E
   36    38     1     0     0
SMALL
No Charge or Current Charge


@<TRIPOS>ATOM
      1 C1          13.5280   -19.3730     7.4100 c3         1 H5E      -0.081767
      2 C2          12.6700   -18.3070     6.6750 c3         1 H5E      -0.074300
      3 C3          11.7260   -19.0160     5.6660 c3         1 H5E      -0.081767
      4 C4          13.6290   -17.3810     5.8740 c3         1 H5E      -0.081767
      5 C5          11.8460   -17.5130     7.6900 cc         1 H5E       0.299300
      6 C6          11.9040   -16.1530     7.9070 cd         1 H5E      -0.262000
      7 C8          10.3210   -17.3400     9.2930 cd         1 H5E       0.397700
      8 N10          8.0660   -16.9430    10.3420 n          1 H5E      -0.394400
      9 C11          7.8480   -16.0200    11.3610 c          1 H5E       0.617000
     10 N13          6.6650   -15.4070    11.0630 ns         1 H5E      -0.481900
     11 C15          4.6020   -16.0560     9.6880 cx         1 H5E      -0.098900
     12 C16          5.3540   -14.9990     8.9000 cx         1 H5E      -0.098900
     13 C17          7.0720   -16.9630     9.3660 c          1 H5E       0.598000
     14 S7          10.7880   -15.6510     9.1630 ss         1 H5E      -0.018400
     15 C9           9.2710   -17.8040    10.2740 c3         1 H5E       0.089700
     16 O12          8.5630   -15.7930    12.3200 o          1 H5E      -0.547000
     17 C14          6.0950   -15.9100     9.8480 cx         1 H5E      -0.068600
     18 O18          7.0240   -17.6620     8.3640 o          1 H5E      -0.489000
     19 N19         10.9440   -18.1850     8.4830 nc         1 H5E      -0.627000
     20 H1          14.1920   -18.8990     8.1440 hc         1 H5E       0.038367
     21 H2          12.8970   -20.0940     7.9430 hc         1 H5E       0.038367
     22 H3          14.1510   -19.9340     6.7030 hc         1 H5E       0.038367
     23 H4          11.0670   -19.7320     6.1730 hc         1 H5E       0.038367
     24 H5          11.0930   -18.2850     5.1470 hc         1 H5E       0.038367
     25 H6          12.2980   -19.5670     4.9100 hc         1 H5E       0.038367
     26 H7          14.3320   -16.8700     6.5430 hc         1 H5E       0.038367
     27 H8          14.2170   -17.9560     5.1490 hc         1 H5E       0.038367
     28 H9          13.0680   -16.6190     5.3190 hc         1 H5E       0.038367
     29 H10         12.5270   -15.4210     7.4130 h4         1 H5E       0.160000
     30 H11          6.2780   -14.6780    11.6530 hn         1 H5E       0.354500
     31 H12          3.9650   -15.7220    10.5030 hc         1 H5E       0.090700
     32 H13          4.2290   -16.9210     9.1450 hc         1 H5E       0.090700
     33 H14          5.2200   -13.9600     9.1890 hc         1 H5E       0.090700
     34 H15          5.4830   -15.1610     7.8320 hc         1 H5E       0.090700
     35 H16          8.9620   -18.8210    10.0010 h1         1 H5E       0.090700
     36 H17          9.7350   -17.8650    11.2660 h1         1 H5E       0.090700
@<TRIPOS>BOND
     1     1     2 1   
     2     1    20 1   
     3     1    21 1   
     4     1    22 1   
     5     2     3 1   
     6     2     4 1   
     7     2     5 1   
     8     3    23 1   
     9     3    24 1   
    10     3    25 1   
    11     4    26 1   
    12     4    27 1   
    13     4    28 1   
    14     5     6 2   
    15     5    19 1   
    16     6    14 1   
    17     6    29 1   
    18     7    14 1   
    19     7    15 1   
    20     7    19 2   
    21     8     9 1   
    22     8    13 1   
    23     8    15 1   
    24     9    10 1   
    25     9    16 2   
    26    10    17 1   
    27    10    30 1   
    28    11    12 1   
    29    11    17 1   
    30    11    31 1   
    31    11    32 1   
    32    12    17 1   
    33    12    33 1   
    34    12    34 1   
    35    13    17 1   
    36    13    18 2   
    37    15    35 1   
    38    15    36 1   
@<TRIPOS>SUBSTRUCTURE
     1 H5E         1 TEMP              0 ****  ****    0 ROOT
