@<TRIPOS>MOLECULE
H5E
   36    38     1     0     0
SMALL
abcg2


@<TRIPOS>ATOM
      1 C1          13.1580   -19.4940     7.1960 c3         1 H5E      -0.081767
      2 C2          12.4930   -18.2010     6.6890 c3         1 H5E      -0.074300
      3 C3          11.3680   -18.5580     5.7000 c3         1 H5E      -0.081767
      4 C4          13.5400   -17.3410     5.9740 c3         1 H5E      -0.081767
      5 C5          11.8960   -17.4610     7.8670 cc         1 H5E       0.299300
      6 C6          12.2230   -16.2110     8.3060 cd         1 H5E      -0.262000
      7 C8          10.4890   -17.3230     9.5890 cd         1 H5E       0.397700
      8 N10          8.2060   -16.9180    10.4060 n          1 H5E      -0.394400
      9 C11          7.9760   -15.7470    11.1570 c          1 H5E       0.617000
     10 N13          6.7810   -15.2640    10.7530 ns         1 H5E      -0.481900
     11 C15          4.7360   -16.3080     9.5540 cx         1 H5E      -0.098900
     12 C16          5.4550   -15.4720     8.5390 cx         1 H5E      -0.098900
     13 C17          7.2000   -17.1510     9.4980 c          1 H5E       0.598000
     14 S7          11.2850   -15.7840     9.6840 ss         1 H5E      -0.018400
     15 C9           9.4040   -17.7290    10.5440 c3         1 H5E       0.089700
     16 O12          8.7410   -15.3020    11.9960 o          1 H5E      -0.547000
     17 C14          6.2130   -16.0540     9.7020 cx         1 H5E      -0.068600
     18 O18          7.1460   -18.0700     8.7040 o          1 H5E      -0.489000
     19 N19         10.9060   -18.0730     8.6130 nc         1 H5E      -0.627000
     20 H1          13.9730   -19.2640     7.8860 hc         1 H5E       0.038367
     21 H2          12.4370   -20.1270     7.7130 hc         1 H5E       0.038367
     22 H3          13.5700   -20.0550     6.3540 hc         1 H5E       0.038367
     23 H4          10.6080   -19.1760     6.1810 hc         1 H5E       0.038367
     24 H5          10.8860   -17.6560     5.3190 hc         1 H5E       0.038367
     25 H6          11.7800   -19.1120     4.8540 hc         1 H5E       0.038367
     26 H7          14.3640   -17.0790     6.6400 hc         1 H5E       0.038367
     27 H8          13.9520   -17.8960     5.1290 hc         1 H5E       0.038367
     28 H9          13.1010   -16.4170     5.5900 hc         1 H5E       0.038367
     29 H10         12.9490   -15.5240     7.9060 h4         1 H5E       0.160000
     30 H11          6.4100   -14.3860    11.0790 hn         1 H5E       0.354500
     31 H12          4.0970   -15.8050    10.2670 hc         1 H5E       0.090700
     32 H13          4.4450   -17.3150     9.2840 hc         1 H5E       0.090700
     33 H14          5.3020   -14.4010     8.5630 hc         1 H5E       0.090700
     34 H15          5.6600   -15.9000     7.5670 hc         1 H5E       0.090700
     35 H16          9.1400   -18.7640    10.3410 h1         1 H5E       0.090700
     36 H17          9.7390   -17.6420    11.5760 h1         1 H5E       0.090700
@<TRIPOS>BOND
     1     1     2 1   
     2     1    20 1   
     3     1    21 1   
     4     1    22 1   
     5     2     3 1   
     6     2     4 1   
     7     2     5 1   
     8     3    23 1   
     9     3    24 1   
    10     3    25 1   
    11     4    26 1   
    12     4    27 1   
    13     4    28 1   
    14     5     6 2   
    15     5    19 1   
    16     6    14 1   
    17     6    29 1   
    18     7    14 1   
    19     7    15 1   
    20     7    19 2   
    21     8     9 1   
    22     8    13 1   
    23     8    15 1   
    24     9    10 1   
    25     9    16 2   
    26    10    17 1   
    27    10    30 1   
    28    11    12 1   
    29    11    17 1   
    30    11    31 1   
    31    11    32 1   
    32    12    17 1   
    33    12    33 1   
    34    12    34 1   
    35    13    17 1   
    36    13    18 2   
    37    15    35 1   
    38    15    36 1   
@<TRIPOS>SUBSTRUCTURE
     1 H5E         1 TEMP              0 ****  ****    0 ROOT
