@<TRIPOS>MOLECULE
H5F
   33    35     1     0     0
SMALL
abcg2


@<TRIPOS>ATOM
      1 C01         21.8810    34.0280     6.0880 cc         1 H5F       0.457400
      2 C03         21.7530    34.2270     4.0000 cd         1 H5F      -0.064000
      3 C04         21.9530    34.4440     2.6390 cc         1 H5F       0.423600
      4 C06         19.5920    33.7920     2.3260 c          1 H5F       0.711400
      5 C09         20.4840    33.8070     4.3970 cd         1 H5F       0.116000
      6 C11         19.6010    33.2900     6.7250 c5         1 H5F       0.327300
      7 C12         18.2410    33.9690     6.6100 c5         1 H5F       0.134300
      8 C13         17.3990    33.0340     7.4830 c5         1 H5F       0.103300
      9 C14         18.0360    31.6610     7.1770 c5         1 H5F       0.140300
     10 C16         17.2250    30.7710     6.2650 c3         1 H5F       0.157600
     11 N02         22.6050    34.3570     5.0720 nd         1 H5F      -0.648000
     12 N05         20.8680    34.2130     1.8710 ns         1 H5F      -0.546600
     13 N08         19.4240    33.5820     3.6440 nc         1 H5F      -0.431400
     14 N10         20.5850    33.6870     5.7590 na         1 H5F      -0.217500
     15 N20         23.0940    34.8440     2.1020 nv         1 H5F      -0.970000
     16 O07         18.7190    33.6490     1.4810 o          1 H5F      -0.555000
     17 O15         19.3230    31.9240     6.6070 os         1 H5F      -0.442000
     18 O17         16.8780    31.4640     5.0920 oh         1 H5F      -0.700000
     19 O18         17.5710    33.4180     8.8250 oh         1 H5F      -0.702000
     20 O19         18.3360    35.2960     7.0230 oh         1 H5F      -0.691000
     21 H1          22.2110    34.0090     7.1160 h5         1 H5F       0.060100
     22 H2          20.0410    33.5290     7.7030 h2         1 H5F       0.075700
     23 H3          17.8880    33.8790     5.5780 h1         1 H5F       0.107700
     24 H4          16.3400    33.0550     7.1990 h1         1 H5F       0.063700
     25 H5          18.1680    31.1110     8.1180 h1         1 H5F       0.054700
     26 H6          16.3400    30.4550     6.8320 h1         1 H5F       0.026200
     27 H7          17.8020    29.8620     6.0490 h1         1 H5F       0.026200
     28 H9          23.8900    35.0190     2.6920 hn         1 H5F       0.514000
     29 H10         23.1990    35.0080     1.1140 hn         1 H5F       0.514000
     30 H11         16.3170    30.8950     4.5570 ho         1 H5F       0.508000
     31 H12         17.0820    32.8030     9.3810 ho         1 H5F       0.500000
     32 H13         17.5470    35.7670     6.7360 ho         1 H5F       0.514000
     33 H14         20.9420    34.3530     0.8710 hn         1 H5F       0.434000
@<TRIPOS>BOND
     1     1    11 2   
     2     1    14 1   
     3     1    21 1   
     4     2     3 2   
     5     2     5 1   
     6     2    11 1   
     7     3    12 1   
     8     3    15 1   
     9     4    12 1   
    10     4    13 1   
    11     4    16 2   
    12     5    13 2   
    13     5    14 1   
    14     6     7 1   
    15     6    14 1   
    16     6    17 1   
    17     6    22 1   
    18     7     8 1   
    19     7    20 1   
    20     7    23 1   
    21     8     9 1   
    22     8    19 1   
    23     8    24 1   
    24     9    10 1   
    25     9    17 1   
    26     9    25 1   
    27    10    18 1   
    28    10    26 1   
    29    10    27 1   
    30    12    33 1   
    31    15    28 1   
    32    15    29 1   
    33    18    30 1   
    34    19    31 1   
    35    20    32 1   
@<TRIPOS>SUBSTRUCTURE
     1 H5F         1 TEMP              0 ****  ****    0 ROOT
