@<TRIPOS>MOLECULE
H5F
   33    35     1     0     0
SMALL
No Charge or Current Charge


@<TRIPOS>ATOM
      1 C01         21.8810    34.2180     6.1120 cc         1 H5F       0.457400
      2 C03         21.7840    34.2310     3.9860 cd         1 H5F      -0.064000
      3 C04         22.0260    34.3590     2.6350 cc         1 H5F       0.423600
      4 C06         19.7780    33.5440     2.2110 c          1 H5F       0.711400
      5 C09         20.5550    33.7730     4.3860 cd         1 H5F       0.116000
      6 C11         19.5580    33.3560     6.6850 c5         1 H5F       0.327300
      7 C12         18.1560    34.0270     6.5480 c5         1 H5F       0.134300
      8 C13         17.3570    33.0960     7.5040 c5         1 H5F       0.103300
      9 C14         17.9720    31.6910     7.1410 c5         1 H5F       0.140300
     10 C16         17.1160    30.8200     6.1710 c3         1 H5F       0.157600
     11 N02         22.6440    34.5250     5.0260 nd         1 H5F      -0.648000
     12 N05         21.0100    34.0070     1.7930 ns         1 H5F      -0.546600
     13 N08         19.5660    33.4350     3.5830 nc         1 H5F      -0.431400
     14 N10         20.6030    33.7590     5.7440 na         1 H5F      -0.217500
     15 N20         23.1590    34.7870     2.0410 nv         1 H5F      -0.970000
     16 O07         18.9250    33.2480     1.3930 o          1 H5F      -0.555000
     17 O15         19.2780    31.9480     6.5530 os         1 H5F      -0.442000
     18 O17         16.6750    31.5550     5.0150 oh         1 H5F      -0.700000
     19 O18         17.6000    33.4750     8.8760 oh         1 H5F      -0.702000
     20 O19         18.0940    35.3850     7.0150 oh         1 H5F      -0.691000
     21 H1          22.1850    34.3050     7.1490 h5         1 H5F       0.060100
     22 H2          19.9590    33.5480     7.6890 h2         1 H5F       0.075700
     23 H3          17.7870    33.9430     5.5160 h1         1 H5F       0.107700
     24 H4          16.2800    33.1320     7.2820 h1         1 H5F       0.063700
     25 H5          18.1270    31.0990     8.0530 h1         1 H5F       0.054700
     26 H6          16.2460    30.4440     6.7250 h1         1 H5F       0.026200
     27 H7          17.7110    29.9480     5.8670 h1         1 H5F       0.026200
     28 H9          23.8630    35.1680     2.6700 hn         1 H5F       0.514000
     29 H10         23.1040    35.2410     1.1340 hn         1 H5F       0.514000
     30 H11         16.2550    30.9060     4.4030 ho         1 H5F       0.508000
     31 H12         17.0390    32.8980     9.4490 ho         1 H5F       0.500000
     32 H13         17.9080    35.2810     7.9830 ho         1 H5F       0.514000
     33 H14         21.1360    34.0490     0.7940 hn         1 H5F       0.434000
@<TRIPOS>BOND
     1     1    11 2   
     2     1    14 1   
     3     1    21 1   
     4     2     3 2   
     5     2     5 1   
     6     2    11 1   
     7     3    12 1   
     8     3    15 1   
     9     4    12 1   
    10     4    13 1   
    11     4    16 2   
    12     5    13 2   
    13     5    14 1   
    14     6     7 1   
    15     6    14 1   
    16     6    17 1   
    17     6    22 1   
    18     7     8 1   
    19     7    20 1   
    20     7    23 1   
    21     8     9 1   
    22     8    19 1   
    23     8    24 1   
    24     9    10 1   
    25     9    17 1   
    26     9    25 1   
    27    10    18 1   
    28    10    26 1   
    29    10    27 1   
    30    12    33 1   
    31    15    28 1   
    32    15    29 1   
    33    18    30 1   
    34    19    31 1   
    35    20    32 1   
@<TRIPOS>SUBSTRUCTURE
     1 H5F         1 TEMP              0 ****  ****    0 ROOT
