@<TRIPOS>MOLECULE
H5G
   30    31     1     0     0
SMALL
abcg2


@<TRIPOS>ATOM
      1 N1          -0.6990    -0.1040     0.7310 ns         1 H5G      -0.154000
      2 C4          -2.0490     0.9570    -1.0470 ca         1 H5G      -0.134000
      3 C5          -3.3140     1.2890    -1.5070 ca         1 H5G      -0.075000
      4 C6          -4.4600     0.9780    -0.7920 ca         1 H5G      -0.132000
      5 C7          -4.3080     0.3180     0.4160 ca         1 H5G       0.150000
      6 C8          -3.0630    -0.0280     0.9050 ca         1 H5G      -0.170000
      7 C10          3.6370     0.9490     1.3150 ca         1 H5G      -0.133000
      8 C13          4.9750    -0.5780    -0.5880 ca         1 H5G       0.141100
      9 C2           0.5670     0.0990     0.2750 c          1 H5G       0.607100
     10 C3          -1.9150     0.2890     0.1730 ca         1 H5G      -0.006000
     11 O1           0.8380     0.7080    -0.7390 o          1 H5G      -0.557100
     12 C9           3.0140    -0.1630     0.7610 ca         1 H5G      -0.032300
     13 C11          4.9230     1.2900     0.9160 ca         1 H5G      -0.072000
     14 C12          5.5980     0.5370    -0.0310 ca         1 H5G      -0.137000
     15 C14          3.6870    -0.9230    -0.1890 ca         1 H5G      -0.186000
     16 H1          -0.7770    -0.6180     1.5960 hn         1 H5G       0.150000
     17 H2          -1.1850     1.2160    -1.6360 ha         1 H5G       0.152000
     18 H3          -3.4070     1.8060    -2.4530 ha         1 H5G       0.120000
     19 H4          -5.4410     1.2390    -1.1650 ha         1 H5G       0.132000
     20 H5          -2.9780    -0.5440     1.8540 ha         1 H5G       0.123000
     21 H6           3.1230     1.5450     2.0590 ha         1 H5G       0.114000
     22 H7           1.4360    -0.2450     2.2050 hc         1 H5G       0.066700
     23 H8           1.4840    -1.6210     1.1290 hc         1 H5G       0.066700
     24 H9           5.4100     2.1540     1.3500 ha         1 H5G       0.116000
     25 H10          6.6010     0.8030    -0.3380 ha         1 H5G       0.129000
     26 H11          3.2030    -1.7940    -0.6200 ha         1 H5G       0.111000
     27 H12          5.1320    -2.0260    -1.8250 ho         1 H5G       0.464000
     28 CL1         -5.7130    -0.0890     1.3470 cl         1 H5G      -0.205000
     29 C1           1.6210    -0.5360     1.1680 c3         1 H5G      -0.117100
     30 O2           5.6630    -1.2890    -1.5050 oh         1 H5G      -0.533100
@<TRIPOS>BOND
     1     1     9 1   
     2     1    10 1   
     3     1    16 1   
     4     2     3 ar  
     5     2    10 ar  
     6     2    17 1   
     7     3     4 ar  
     8     3    18 1   
     9     4     5 ar  
    10     4    19 1   
    11     5     6 ar  
    12     5    28 1   
    13     6    10 ar  
    14     6    20 1   
    15     7    12 ar  
    16     7    13 ar  
    17     7    21 1   
    18     8    14 ar  
    19     8    15 ar  
    20     8    30 1   
    21     9    11 2   
    22     9    29 1   
    23    12    15 ar  
    24    12    29 1   
    25    13    14 ar  
    26    13    24 1   
    27    14    25 1   
    28    15    26 1   
    29    22    29 1   
    30    23    29 1   
    31    27    30 1   
@<TRIPOS>SUBSTRUCTURE
     1 H5G         1 TEMP              0 ****  ****    0 ROOT
