@<TRIPOS>MOLECULE
H5G
   30    31     1     0     0
SMALL
No Charge or Current Charge


@<TRIPOS>ATOM
      1 N1          -0.5130    -0.4150     0.4070 ns         1 H5G      -0.154000
      2 C4          -2.1380     0.4590    -1.2820 ca         1 H5G      -0.134000
      3 C5          -3.3360     1.1430    -1.5540 ca         1 H5G      -0.075000
      4 C6          -4.1190     1.6400    -0.5000 ca         1 H5G      -0.132000
      5 C7          -3.7020     1.4510     0.8260 ca         1 H5G       0.150000
      6 C8          -2.5060     0.7680     1.0990 ca         1 H5G      -0.170000
      7 C10          2.9110     0.3050     1.5190 ca         1 H5G      -0.133000
      8 C13          4.9780     0.0380    -0.3620 ca         1 H5G       0.141100
      9 C2           0.4950    -0.9970    -0.3520 c          1 H5G       0.607100
     10 C3          -1.7100     0.2650     0.0520 ca         1 H5G      -0.006000
     11 O1           0.5170    -1.0120    -1.5780 o          1 H5G      -0.557100
     12 C9           2.8290    -0.6950     0.5300 ca         1 H5G      -0.032300
     13 C11          4.0200     1.1670     1.5670 ca         1 H5G      -0.072000
     14 C12          5.0540     1.0310     0.6250 ca         1 H5G      -0.137000
     15 C14          3.8690    -0.8240    -0.4110 ca         1 H5G      -0.186000
     16 H1          -0.3680    -0.4850     1.4050 hn         1 H5G       0.150000
     17 H2          -1.5600     0.0870    -2.1230 ha         1 H5G       0.152000
     18 H3          -3.6580     1.2870    -2.5840 ha         1 H5G       0.120000
     19 H4          -5.0450     2.1690    -0.7080 ha         1 H5G       0.132000
     20 H5          -2.1980     0.6310     2.1330 ha         1 H5G       0.123000
     21 H6           2.1150     0.4170     2.2520 ha         1 H5G       0.114000
     22 H7           1.2720    -1.8090     1.4990 hc         1 H5G       0.066700
     23 H8           1.9100    -2.5760     0.0160 hc         1 H5G       0.066700
     24 H9           4.0780     1.9370     2.3330 ha         1 H5G       0.116000
     25 H10          5.9130     1.6970     0.6610 ha         1 H5G       0.129000
     26 H11          3.8090    -1.5910    -1.1790 ha         1 H5G       0.111000
     27 H12          5.7600    -0.8260    -1.8800 ho         1 H5G       0.464000
     28 Cl1         -4.6780     2.0710     2.1500 cl         1 H5G      -0.205000
     29 C1           1.6220    -1.6240     0.4770 c3         1 H5G      -0.117100
     30 O2           5.9830    -0.0870    -1.2730 oh         1 H5G      -0.533100
@<TRIPOS>BOND
     1     1     9 1   
     2     1    10 1   
     3     1    16 1   
     4     2     3 ar  
     5     2    10 ar  
     6     2    17 1   
     7     3     4 ar  
     8     3    18 1   
     9     4     5 ar  
    10     4    19 1   
    11     5     6 ar  
    12     5    28 1   
    13     6    10 ar  
    14     6    20 1   
    15     7    12 ar  
    16     7    13 ar  
    17     7    21 1   
    18     8    14 ar  
    19     8    15 ar  
    20     8    30 1   
    21     9    11 2   
    22     9    29 1   
    23    12    15 ar  
    24    12    29 1   
    25    13    14 ar  
    26    13    24 1   
    27    14    25 1   
    28    15    26 1   
    29    22    29 1   
    30    23    29 1   
    31    27    30 1   
@<TRIPOS>SUBSTRUCTURE
     1 H5G         1 TEMP              0 ****  ****    0 ROOT
