@<TRIPOS>MOLECULE
H5H
   57    60     1     0     0
SMALL
abcg2


@<TRIPOS>ATOM
      1 C19          3.0610     0.0130     0.1600 c6         1 H5H       0.247300
      2 C22          6.0870    -2.4210    -0.3870 ca         1 H5H      -0.075500
      3 C21          5.4630    -1.3750     0.2810 ca         1 H5H      -0.121000
      4 C16          3.1710     3.2440     1.8310 c3         1 H5H       0.172600
      5 C12          0.9900     1.1560    -0.5600 c6         1 H5H       0.062300
      6 C13          1.2720     2.2330     0.5000 c6         1 H5H       0.132300
      7 C23          7.4360    -2.3370    -0.7050 ca         1 H5H      -0.116000
      8 C15          2.7730     2.2500     0.7630 c6         1 H5H       0.154300
      9 C10         -1.3710     0.4190    -0.0920 cc         1 H5H      -0.171000
     10 C01         -8.2230    -1.9450     1.4510 c3         1 H5H       0.196100
     11 C03         -6.5560    -0.6820     0.1190 ca         1 H5H       0.301000
     12 C04         -6.2880     0.5810    -0.4250 ca         1 H5H       0.045000
     13 C06         -5.0160     1.0150    -0.7140 ca         1 H5H       0.208000
     14 C08         -3.8950     0.2290    -0.4680 ca         1 H5H      -0.189500
     15 C09         -2.5390     0.6680    -0.7740 cd         1 H5H       0.247500
     16 C24          8.1830    -1.2070    -0.3870 ca         1 H5H      -0.058300
     17 C25          9.6340    -1.1010    -0.7520 c3         1 H5H      -0.049800
     18 C26          7.5390    -0.1630     0.2780 ca         1 H5H      -0.116000
     19 C27          6.2010    -0.2430     0.6260 ca         1 H5H      -0.075500
     20 C28          1.5780    -0.2010    -0.1760 c6         1 H5H       0.149300
     21 C32         -4.1540    -1.0220     0.0760 ca         1 H5H       0.208000
     22 C34         -5.4280    -1.4710     0.3540 ca         1 H5H       0.045000
     23 F07         -4.8720     2.2440    -1.2050 f          1 H5H      -0.144000
     24 F33         -3.1380    -1.8510     0.3200 f          1 H5H      -0.144000
     25 F35         -5.5620    -2.7150     0.8320 f          1 H5H      -0.162000
     26 N02         -7.8410    -1.0790     0.3490 nu         1 H5H      -0.924200
     27 N11         -0.4310     1.0420    -0.8190 na         1 H5H       0.133800
     28 N30         -0.9660     1.6420    -1.8710 nc         1 H5H      -0.198800
     29 N31         -2.2310     1.4240    -1.8540 nd         1 H5H      -0.331000
     30 O14          0.5840     1.9620     1.6940 oh         1 H5H      -0.704000
     31 O17          4.5770     3.3080     1.8700 oh         1 H5H      -0.715000
     32 O18          3.2040     0.9650     1.1730 os         1 H5H      -0.406000
     33 O29          1.3990    -1.0530    -1.2680 oh         1 H5H      -0.704000
     34 S20          3.7600    -1.5530     0.7360 ss         1 H5H      -0.161000
     35 H191         3.6010     0.3090    -0.7510 h2         1 H5H       0.072700
     36 H162         2.7250     4.2130     1.5720 h1         1 H5H       0.037700
     37 H161         2.7480     2.9400     2.7950 h1         1 H5H       0.037700
     38 H121         1.4420     1.4750    -1.5040 h1         1 H5H       0.107700
     39 H131         0.9850     3.2040     0.0820 h1         1 H5H       0.060700
     40 H231         7.9090    -3.1660    -1.2180 ha         1 H5H       0.115000
     41 H151         3.2710     2.5310    -0.1790 h1         1 H5H       0.057700
     42 H101        -1.1560    -0.1260     0.8090 h4         1 H5H       0.181000
     43 H013        -9.3030    -1.8810     1.5530 h1         1 H5H       0.046033
     44 H012        -7.9740    -2.9860     1.2620 h1         1 H5H       0.046033
     45 H011        -7.7770    -1.6420     2.4010 h1         1 H5H       0.046033
     46 H253         9.7850    -0.3700    -1.5490 hc         1 H5H       0.044700
     47 H251        10.2340    -0.7740     0.0990 hc         1 H5H       0.044700
     48 H252        10.0320    -2.0540    -1.0970 hc         1 H5H       0.044700
     49 H261         8.0990     0.7260     0.5460 ha         1 H5H       0.115000
     50 H271         5.7360     0.5780     1.1570 ha         1 H5H       0.132000
     51 H281         1.0780    -0.5770     0.7290 h1         1 H5H       0.069700
     52 H021        -8.5210    -0.3630     0.1560 hn         1 H5H       0.481000
     53 H141        -0.2370     2.4620     1.7070 ho         1 H5H       0.513000
     54 H171         4.8280     3.8730     2.6060 ho         1 H5H       0.509000
     55 H291         1.7000    -1.9360    -1.0250 ho         1 H5H       0.528000
     56 F05         -7.3220     1.4010    -0.6620 f          1 H5H      -0.162000
     57 H221         5.5230    -3.3010    -0.6670 ha         1 H5H       0.132000
@<TRIPOS>BOND
     1     1    20 1   
     2     1    32 1   
     3     1    34 1   
     4     1    35 1   
     5     2     3 ar  
     6     2     7 ar  
     7     2    57 1   
     8     3    19 ar  
     9     3    34 1   
    10     4     8 1   
    11     4    31 1   
    12     4    36 1   
    13     4    37 1   
    14     5     6 1   
    15     5    20 1   
    16     5    27 1   
    17     5    38 1   
    18     6     8 1   
    19     6    30 1   
    20     6    39 1   
    21     7    16 ar  
    22     7    40 1   
    23     8    32 1   
    24     8    41 1   
    25     9    15 2   
    26     9    27 1   
    27     9    42 1   
    28    10    26 1   
    29    10    43 1   
    30    10    44 1   
    31    10    45 1   
    32    11    12 ar  
    33    11    22 ar  
    34    11    26 1   
    35    12    13 ar  
    36    12    56 1   
    37    13    14 ar  
    38    13    23 1   
    39    14    15 1   
    40    14    21 ar  
    41    15    29 1   
    42    16    17 1   
    43    16    18 ar  
    44    17    46 1   
    45    17    47 1   
    46    17    48 1   
    47    18    19 ar  
    48    18    49 1   
    49    19    50 1   
    50    20    33 1   
    51    20    51 1   
    52    21    22 ar  
    53    21    24 1   
    54    22    25 1   
    55    26    52 1   
    56    27    28 1   
    57    28    29 2   
    58    30    53 1   
    59    31    54 1   
    60    33    55 1   
@<TRIPOS>SUBSTRUCTURE
     1 H5H         1 TEMP              0 ****  ****    0 ROOT
