@<TRIPOS>MOLECULE
H5H
   57    60     1     0     0
SMALL
No Charge or Current Charge


@<TRIPOS>ATOM
      1 C19          3.0340    -0.0200    -0.3830 c6         1 H5H       0.247300
      2 C22          6.4090    -2.5620    -0.0690 ca         1 H5H      -0.075500
      3 C21          5.5810    -1.4380    -0.2390 ca         1 H5H      -0.121000
      4 C16          3.4460     2.8800     1.9980 c3         1 H5H       0.172600
      5 C12          0.8860     1.3530    -0.5930 c6         1 H5H       0.062300
      6 C13          1.3200     2.1500     0.6760 c6         1 H5H       0.132300
      7 C23          7.8090    -2.4280    -0.0750 ca         1 H5H      -0.116000
      8 C15          2.8810     2.1150     0.7570 c6         1 H5H       0.154300
      9 C10         -1.5000     0.5480    -0.1560 cc         1 H5H      -0.171000
     10 C01         -8.4550    -2.1720     1.4130 c3         1 H5H       0.196100
     11 C03         -6.6970    -0.6060     0.2830 ca         1 H5H       0.301000
     12 C04         -6.5300     0.4780    -0.6030 ca         1 H5H       0.045000
     13 C06         -5.2520     0.9860    -0.9010 ca         1 H5H       0.208000
     14 C08         -4.0780     0.4300    -0.3220 ca         1 H5H      -0.189500
     15 C09         -2.7170     0.9650    -0.6350 cd         1 H5H       0.247500
     16 C24          8.4000    -1.1640    -0.2510 ca         1 H5H      -0.058300
     17 C25          9.9140    -1.0180    -0.2610 c3         1 H5H      -0.049800
     18 C26          7.5750    -0.0380    -0.4250 ca         1 H5H      -0.116000
     19 C27          6.1750    -0.1700    -0.4190 ca         1 H5H      -0.075500
     20 C28          1.4820    -0.0920    -0.5840 c6         1 H5H       0.149300
     21 C32         -4.2610    -0.6610     0.5680 ca         1 H5H       0.208000
     22 C34         -5.5390    -1.1720     0.8680 ca         1 H5H       0.045000
     23 F07         -5.1880     2.0290    -1.7620 f          1 H5H      -0.144000
     24 F33         -3.2030    -1.2550     1.1640 f          1 H5H      -0.144000
     25 F35         -5.6250    -2.2170     1.7290 f          1 H5H      -0.162000
     26 N02         -8.0140    -1.0680     0.5380 nu         1 H5H      -0.924200
     27 N11         -0.5880     1.3740    -0.7710 na         1 H5H       0.133800
     28 N30         -1.2130     2.2670    -1.5820 nc         1 H5H      -0.198800
     29 N31         -2.4900     2.0180    -1.5010 nd         1 H5H      -0.331000
     30 O14          0.7200     1.5890     1.8670 oh         1 H5H      -0.704000
     31 O17          4.8880     2.9060     2.0400 oh         1 H5H      -0.715000
     32 O18          3.3480     0.7430     0.8030 os         1 H5H      -0.406000
     33 O29          1.1440    -0.7830    -1.8090 oh         1 H5H      -0.704000
     34 S20          3.7990    -1.7030    -0.2260 ss         1 H5H      -0.161000
     35 H191         3.4890     0.4530    -1.2660 h2         1 H5H       0.072700
     36 H162         3.0540     3.9060     1.9740 h1         1 H5H       0.037700
     37 H161         3.0530     2.4030     2.9070 h1         1 H5H       0.037700
     38 H121         1.3130     1.8690    -1.4640 h1         1 H5H       0.107700
     39 H131         1.0080     3.1990     0.5540 h1         1 H5H       0.060700
     40 H231         8.4330    -3.3090     0.0560 ha         1 H5H       0.115000
     41 H151         3.2960     2.5970    -0.1410 h1         1 H5H       0.057700
     42 H101        -1.2070    -0.2260     0.5370 h4         1 H5H       0.181000
     43 H013        -9.5490    -2.2690     1.3870 h1         1 H5H       0.046033
     44 H012        -8.0190    -3.1250     1.0850 h1         1 H5H       0.046033
     45 H011        -8.1540    -1.9870     2.4530 h1         1 H5H       0.046033
     46 H253        10.3090    -1.1260    -1.2780 hc         1 H5H       0.044700
     47 H251        10.2230    -0.0360     0.1170 hc         1 H5H       0.044700
     48 H252        10.3930    -1.7780     0.3680 hc         1 H5H       0.044700
     49 H261         8.0190     0.9450    -0.5650 ha         1 H5H       0.115000
     50 H271         5.5740     0.7240    -0.5550 ha         1 H5H       0.132000
     51 H281         1.0650    -0.6330     0.2790 h1         1 H5H       0.069700
     52 H021        -8.7510    -0.5580     0.0410 hn         1 H5H       0.481000
     53 H141        -0.0930     2.1100     2.0650 ho         1 H5H       0.513000
     54 H171         5.1430     3.3170     2.8990 ho         1 H5H       0.509000
     55 H291         1.4000    -1.7290    -1.6960 ho         1 H5H       0.528000
     56 F05         -7.6190     1.0470    -1.1840 f          1 H5H      -0.162000
     57 H221         5.9660    -3.5470     0.0670 ha         1 H5H       0.132000
@<TRIPOS>BOND
     1     1    20 1   
     2     1    32 1   
     3     1    34 1   
     4     1    35 1   
     5     2     3 ar  
     6     2     7 ar  
     7     2    57 1   
     8     3    19 ar  
     9     3    34 1   
    10     4     8 1   
    11     4    31 1   
    12     4    36 1   
    13     4    37 1   
    14     5     6 1   
    15     5    20 1   
    16     5    27 1   
    17     5    38 1   
    18     6     8 1   
    19     6    30 1   
    20     6    39 1   
    21     7    16 ar  
    22     7    40 1   
    23     8    32 1   
    24     8    41 1   
    25     9    15 2   
    26     9    27 1   
    27     9    42 1   
    28    10    26 1   
    29    10    43 1   
    30    10    44 1   
    31    10    45 1   
    32    11    12 ar  
    33    11    22 ar  
    34    11    26 1   
    35    12    13 ar  
    36    12    56 1   
    37    13    14 ar  
    38    13    23 1   
    39    14    15 1   
    40    14    21 ar  
    41    15    29 1   
    42    16    17 1   
    43    16    18 ar  
    44    17    46 1   
    45    17    47 1   
    46    17    48 1   
    47    18    19 ar  
    48    18    49 1   
    49    19    50 1   
    50    20    33 1   
    51    20    51 1   
    52    21    22 ar  
    53    21    24 1   
    54    22    25 1   
    55    26    52 1   
    56    27    28 1   
    57    28    29 2   
    58    30    53 1   
    59    31    54 1   
    60    33    55 1   
@<TRIPOS>SUBSTRUCTURE
     1 H5H         1 TEMP              0 ****  ****    0 ROOT
