@<TRIPOS>MOLECULE
H5I
   48    51     1     0     0
SMALL
No Charge or Current Charge


@<TRIPOS>ATOM
      1 C1           6.1270   -34.3920   -23.2170 c5         1 H5I       0.089700
      2 C2           5.7530   -35.3580   -22.0620 c5         1 H5I       0.137600
      3 C3           7.9540   -34.8140   -21.7590 c          1 H5I       0.707100
      4 O1           9.0420   -34.7690   -21.2110 o          1 H5I      -0.500000
      5 O2           5.4570   -28.5180   -27.2570 os         1 H5I      -0.445000
      6 C11          5.6800   -30.4740   -25.7570 c6         1 H5I       0.192300
      7 C12         11.2370   -30.5980   -23.1230 cp         1 H5I      -0.285500
      8 C13         12.1300   -30.3130   -24.1850 ca         1 H5I       0.186900
      9 C14         13.7240   -29.6670   -22.7010 ca         1 H5I       0.402900
     10 C15         11.7150   -30.3390   -21.8000 ca         1 H5I       0.095300
     11 C16         10.8740   -30.5170   -20.5170 c3         1 H5I       0.262700
     12 F2          10.8880   -31.7980   -20.0840 f          1 H5I      -0.099667
     13 F            9.5780   -30.1700   -20.6930 f          1 H5I      -0.099667
     14 F1          11.3260   -29.7610   -19.4870 f          1 H5I      -0.099667
     15 N6          12.9750   -29.8780   -21.6110 nb         1 H5I      -0.230000
     16 N5          14.9800   -29.2020   -22.4850 nv         1 H5I      -1.062900
     17 N4          13.3750   -29.8510   -23.9790 nb         1 H5I      -0.237000
     18 C6           9.8790   -31.1250   -23.4290 cp         1 H5I       0.249500
     19 C5           9.3920   -32.3290   -22.8860 ca         1 H5I      -0.283000
     20 N1           9.1430   -30.4300   -24.3080 nb         1 H5I      -0.275000
     21 C7           7.9190   -30.8980   -24.6060 ca         1 H5I       0.435900
     22 N3           7.1380   -30.1530   -25.5300 nh         1 H5I      -0.782300
     23 C10          5.1350   -29.9170   -27.1050 c6         1 H5I       0.132100
     24 C9           6.8820   -28.2830   -27.2590 c6         1 H5I       0.132100
     25 C8           7.5280   -28.7470   -25.9200 c6         1 H5I       0.192300
     26 N2           7.3730   -32.0240   -24.1100 nb         1 H5I      -0.322000
     27 C4           8.1040   -32.7620   -23.2510 ca         1 H5I       0.322900
     28 N            7.4620   -33.9570   -22.7510 n          1 H5I      -0.433300
     29 C            6.1880   -35.0830   -24.5990 c3         1 H5I      -0.106100
     30 O            7.0120   -35.7600   -21.4860 os         1 H5I      -0.405100
     31 H1           5.4120   -33.5580   -23.2630 h1         1 H5I       0.093700
     32 H2           5.1730   -34.8320   -21.2910 h1         1 H5I       0.073200
     33 H3           5.1820   -36.2370   -22.3890 h1         1 H5I       0.073200
     34 H5           5.5120   -31.5610   -25.7670 h1         1 H5I       0.070450
     35 H6          11.8410   -30.4750   -25.2230 h4         1 H5I       0.038100
     36 H7          15.4910   -28.8090   -23.2720 hn         1 H5I       0.511500
     37 H8          15.2090   -28.8290   -21.5660 hn         1 H5I       0.511500
     38 H9          10.0310   -32.8950   -22.2250 ha         1 H5I       0.173000
     39 H10          4.0430   -30.0430   -27.1440 h1         1 H5I       0.053700
     40 H11          5.5700   -30.4810   -27.9430 h1         1 H5I       0.053700
     41 H12          7.3360   -28.8290   -28.0990 h1         1 H5I       0.053700
     42 H13          7.0710   -27.2110   -27.4110 h1         1 H5I       0.053700
     43 H14          8.6170   -28.6560   -26.0400 h1         1 H5I       0.070450
     44 H15          7.2320   -28.0450   -25.1260 h1         1 H5I       0.070450
     45 H16          5.2020   -35.4690   -24.8860 hc         1 H5I       0.051367
     46 H17          6.5100   -34.3850   -25.3800 hc         1 H5I       0.051367
     47 H18          6.8900   -35.9250   -24.5920 hc         1 H5I       0.051367
     48 H4           5.0750   -30.0620   -24.9360 h1         1 H5I       0.070450
@<TRIPOS>BOND
     1     1     2 1   
     2     1    28 1   
     3     1    29 1   
     4     1    31 1   
     5     2    30 1   
     6     2    32 1   
     7     2    33 1   
     8     3     4 2   
     9     3    28 1   
    10     3    30 1   
    11     5    23 1   
    12     5    24 1   
    13     6    22 1   
    14     6    23 1   
    15     6    34 1   
    16     6    48 1   
    17     7     8 ar  
    18     7    10 ar  
    19     7    18 1   
    20     8    17 ar  
    21     8    35 1   
    22     9    15 ar  
    23     9    16 1   
    24     9    17 ar  
    25    10    11 1   
    26    10    15 ar  
    27    11    12 1   
    28    11    13 1   
    29    11    14 1   
    30    16    36 1   
    31    16    37 1   
    32    18    19 ar  
    33    18    20 ar  
    34    19    27 ar  
    35    19    38 1   
    36    20    21 ar  
    37    21    22 1   
    38    21    26 ar  
    39    22    25 1   
    40    23    39 1   
    41    23    40 1   
    42    24    25 1   
    43    24    41 1   
    44    24    42 1   
    45    25    43 1   
    46    25    44 1   
    47    26    27 ar  
    48    27    28 1   
    49    29    45 1   
    50    29    46 1   
    51    29    47 1   
@<TRIPOS>SUBSTRUCTURE
     1 H5I         1 TEMP              0 ****  ****    0 ROOT
