@<TRIPOS>MOLECULE
H5I
   48    51     1     0     0
SMALL
abcg2


@<TRIPOS>ATOM
      1 C1           6.0790   -34.2530   -23.2550 c5         1 H5I       0.089700
      2 C2           5.7660   -35.3230   -22.2130 c5         1 H5I       0.137600
      3 C3           7.9620   -34.8110   -21.9910 c          1 H5I       0.707100
      4 O1           9.0810   -34.8740   -21.5580 o          1 H5I      -0.500000
      5 O2           5.9390   -29.0570   -27.6110 os         1 H5I      -0.445000
      6 C11          5.6220   -30.3680   -25.5950 c6         1 H5I       0.192300
      7 C12         11.0560   -30.5120   -23.0360 cp         1 H5I      -0.285500
      8 C13         11.7840   -30.0630   -24.1450 ca         1 H5I       0.186900
      9 C14         13.5750   -29.5560   -22.8710 ca         1 H5I       0.402900
     10 C15         11.7350   -30.3770   -21.8300 ca         1 H5I       0.095300
     11 C16         11.1130   -30.7230   -20.4900 c3         1 H5I       0.262700
     12 F2          11.2070   -32.0360   -20.2430 f          1 H5I      -0.099667
     13 F            9.8220   -30.3910   -20.4430 f          1 H5I      -0.099667
     14 F1          11.7200   -30.0940   -19.4900 f          1 H5I      -0.099667
     15 N6          12.9630   -29.9140   -21.7390 nb         1 H5I      -0.230000
     16 N5          14.8350   -29.1220   -22.7880 nv         1 H5I      -1.062900
     17 N4          13.0100   -29.6010   -24.0870 nb         1 H5I      -0.237000
     18 C6           9.6920   -31.0280   -23.2720 cp         1 H5I       0.249500
     19 C5           9.2890   -32.2710   -22.8120 ca         1 H5I      -0.283000
     20 N1           8.9310   -30.2520   -24.0330 nb         1 H5I      -0.275000
     21 C7           7.7210   -30.7200   -24.3500 ca         1 H5I       0.435900
     22 N3           6.9390   -29.9610   -25.1470 nh         1 H5I      -0.782300
     23 C10          5.5680   -30.3230   -27.1130 c6         1 H5I       0.132100
     24 C9           7.2380   -28.6990   -27.1970 c6         1 H5I       0.132100
     25 C8           7.3600   -28.6810   -25.6830 c6         1 H5I       0.192300
     26 N2           7.2240   -31.8850   -23.9270 nb         1 H5I      -0.322000
     27 C4           7.9930   -32.6500   -23.1760 ca         1 H5I       0.322900
     28 N            7.4010   -33.8370   -22.7840 n          1 H5I      -0.433300
     29 C            6.1110   -34.7920   -24.6750 c3         1 H5I      -0.106100
     30 O            7.0500   -35.7510   -21.7470 os         1 H5I      -0.405100
     31 H1           5.3790   -33.4230   -23.1780 h1         1 H5I       0.093700
     32 H2           5.2000   -34.9250   -21.3690 h1         1 H5I       0.073200
     33 H3           5.2390   -36.1810   -22.6260 h1         1 H5I       0.073200
     34 H5           5.4020   -31.3730   -25.2460 h1         1 H5I       0.070450
     35 H6          11.3260   -30.0990   -25.1280 h4         1 H5I       0.038100
     36 H7          15.3060   -28.7780   -23.6070 hn         1 H5I       0.511500
     37 H8          15.2760   -29.0030   -21.8930 hn         1 H5I       0.511500
     38 H9           9.9450   -32.9080   -22.2500 ha         1 H5I       0.173000
     39 H10          4.5500   -30.5210   -27.4540 h1         1 H5I       0.053700
     40 H11          6.2210   -31.1070   -27.5220 h1         1 H5I       0.053700
     41 H12          7.9830   -29.3920   -27.6130 h1         1 H5I       0.053700
     42 H13          7.4440   -27.7040   -27.5970 h1         1 H5I       0.053700
     43 H14          8.3870   -28.4770   -25.3950 h1         1 H5I       0.070450
     44 H15          6.7280   -27.8890   -25.2660 h1         1 H5I       0.070450
     45 H16          5.1130   -35.1240   -24.9610 hc         1 H5I       0.051367
     46 H17          6.4260   -34.0270   -25.3820 hc         1 H5I       0.051367
     47 H18          6.7880   -35.6440   -24.7590 hc         1 H5I       0.051367
     48 H4           4.8700   -29.6920   -25.1730 h1         1 H5I       0.070450
@<TRIPOS>BOND
     1     1     2 1   
     2     1    28 1   
     3     1    29 1   
     4     1    31 1   
     5     2    30 1   
     6     2    32 1   
     7     2    33 1   
     8     3     4 2   
     9     3    28 1   
    10     3    30 1   
    11     5    23 1   
    12     5    24 1   
    13     6    22 1   
    14     6    23 1   
    15     6    34 1   
    16     6    48 1   
    17     7     8 ar  
    18     7    10 ar  
    19     7    18 1   
    20     8    17 ar  
    21     8    35 1   
    22     9    15 ar  
    23     9    16 1   
    24     9    17 ar  
    25    10    11 1   
    26    10    15 ar  
    27    11    12 1   
    28    11    13 1   
    29    11    14 1   
    30    16    36 1   
    31    16    37 1   
    32    18    19 ar  
    33    18    20 ar  
    34    19    27 ar  
    35    19    38 1   
    36    20    21 ar  
    37    21    22 1   
    38    21    26 ar  
    39    22    25 1   
    40    23    39 1   
    41    23    40 1   
    42    24    25 1   
    43    24    41 1   
    44    24    42 1   
    45    25    43 1   
    46    25    44 1   
    47    26    27 ar  
    48    27    28 1   
    49    29    45 1   
    50    29    46 1   
    51    29    47 1   
@<TRIPOS>SUBSTRUCTURE
     1 H5I         1 TEMP              0 ****  ****    0 ROOT
