@<TRIPOS>MOLECULE
H5J
   16    17     1     0     0
SMALL
No Charge or Current Charge


@<TRIPOS>ATOM
      1 OAB         -2.9950    -1.4050    -0.0220 o          1 H5J      -0.396000
      2 NAL         -2.6470    -0.2170    -0.0120 no         1 H5J       0.699200
      3 OAA         -3.4440     0.7300    -0.0040 o          1 H5J      -0.396000
      4 CAI         -1.1840     0.0910    -0.0100 ca         1 H5J      -0.215200
      5 CAF         -0.2360    -0.9670    -0.0190 ca         1 H5J       0.045000
      6 CAJ          1.1210    -0.6180    -0.0160 ca         1 H5J      -0.272900
      7 CAE          2.3080    -1.4130    -0.0240 cc         1 H5J       0.393800
      8 NAG          3.3980    -0.6400    -0.0170 nd         1 H5J      -0.272700
      9 OAH          2.9150     0.7400    -0.0060 os         1 H5J      -0.104100
     10 CAK          1.5480     0.6690    -0.0060 ca         1 H5J       0.113100
     11 CAD          0.6500     1.7400     0.0030 ca         1 H5J      -0.121000
     12 CAC         -0.7320     1.4440     0.0010 ca         1 H5J      -0.014000
     13 H1          -0.5380    -2.0140    -0.0280 ha         1 H5J       0.162000
     14 H2           2.4510    -2.4850    -0.0330 h4         1 H5J       0.067800
     15 H3           1.0060     2.7670     0.0120 ha         1 H5J       0.153000
     16 H4          -1.4430     2.2690     0.0090 ha         1 H5J       0.158000
@<TRIPOS>BOND
     1     1     2 1   
     2     2     3 1   
     3     2     4 1   
     4     4     5 ar  
     5     4    12 ar  
     6     5     6 ar  
     7     5    13 1   
     8     6     7 1   
     9     6    10 ar  
    10     7     8 2   
    11     7    14 1   
    12     8     9 1   
    13     9    10 1   
    14    10    11 ar  
    15    11    12 ar  
    16    11    15 1   
    17    12    16 1   
@<TRIPOS>SUBSTRUCTURE
     1 H5J         1 TEMP              0 ****  ****    0 ROOT
