@<TRIPOS>MOLECULE
H5J
   16    17     1     0     0
SMALL
abcg2


@<TRIPOS>ATOM
      1 OAB         -2.9230    -1.3480    -0.0280 o          1 H5J      -0.396000
      2 NAL         -2.5680    -0.1930    -0.0120 no         1 H5J       0.699200
      3 OAA         -3.3290     0.7460     0.0030 o          1 H5J      -0.396000
      4 CAI         -1.1400     0.0830    -0.0100 ca         1 H5J      -0.215200
      5 CAF         -0.2630    -0.9840    -0.0190 ca         1 H5J       0.045000
      6 CAJ          1.0880    -0.6660    -0.0160 ca         1 H5J      -0.272900
      7 CAE          2.3180    -1.3900    -0.0220 cc         1 H5J       0.393800
      8 NAG          3.3270    -0.5870    -0.0170 nd         1 H5J      -0.272700
      9 OAH          2.8400     0.7020    -0.0070 os         1 H5J      -0.104100
     10 CAK          1.5070     0.6580    -0.0060 ca         1 H5J       0.113100
     11 CAD          0.6270     1.7340     0.0030 ca         1 H5J      -0.121000
     12 CAC         -0.7130     1.4210     0.0010 ca         1 H5J      -0.014000
     13 H1          -0.5990    -2.0110    -0.0270 ha         1 H5J       0.162000
     14 H2           2.4790    -2.4570    -0.0310 h4         1 H5J       0.067800
     15 H3           0.9660     2.7600     0.0100 ha         1 H5J       0.153000
     16 H4          -1.4380     2.2220     0.0080 ha         1 H5J       0.158000
@<TRIPOS>BOND
     1     1     2 1   
     2     2     3 1   
     3     2     4 1   
     4     4     5 ar  
     5     4    12 ar  
     6     5     6 ar  
     7     5    13 1   
     8     6     7 1   
     9     6    10 ar  
    10     7     8 2   
    11     7    14 1   
    12     8     9 1   
    13     9    10 1   
    14    10    11 ar  
    15    11    12 ar  
    16    11    15 1   
    17    12    16 1   
@<TRIPOS>SUBSTRUCTURE
     1 H5J         1 TEMP              0 ****  ****    0 ROOT
