@<TRIPOS>MOLECULE
H5K
   35    37     1     0     0
SMALL
No Charge or Current Charge


@<TRIPOS>ATOM
      1 N5          -9.4760     0.5390    -0.0230 n1         1 H5K      -0.451000
      2 C13         -8.3360     0.2750    -0.0140 cg         1 H5K       0.241000
      3 C11         -6.9300    -0.0370    -0.0000 ca         1 H5K       0.301000
      4 N3          -6.5530    -1.3240    -0.2740 nb         1 H5K      -0.577000
      5 C10         -5.2090    -1.5540    -0.2450 ca         1 H5K       0.226900
      6 C12         -5.9820     0.9780     0.3010 ca         1 H5K       0.385900
      7 N4          -4.6370     0.7440     0.3310 nb         1 H5K      -0.656000
      8 C9          -4.2620    -0.5270     0.0310 ca         1 H5K       0.487900
      9 N2          -2.8850    -0.7910     0.1250 ns         1 H5K      -0.332900
     10 C8          -1.8100    -0.0050    -0.2230 c          1 H5K       0.659100
     11 O3          -1.9140     1.0890    -0.7620 o          1 H5K      -0.541100
     12 N1          -0.6070    -0.6230     0.0890 ns         1 H5K      -0.158000
     13 C7           0.7490    -0.2250    -0.0750 ca         1 H5K      -0.059000
     14 C6           1.7460    -1.1390     0.3160 ca         1 H5K      -0.141000
     15 C14          1.1390     1.0280    -0.5990 ca         1 H5K      -0.133000
     16 C15          2.5010     1.3520    -0.7290 ca         1 H5K      -0.071000
     17 C16          3.4910     0.4320    -0.3380 ca         1 H5K      -0.053000
     18 C5           3.1090    -0.8180     0.1870 ca         1 H5K      -0.028000
     19 C4           4.0960    -1.7390     0.5790 ca         1 H5K      -0.160000
     20 C3           5.4580    -1.4170     0.4480 ca         1 H5K      -0.050000
     21 C17          4.8550     0.7540    -0.4690 ca         1 H5K      -0.089000
     22 C2           5.8580    -0.1650    -0.0770 ca         1 H5K      -0.128600
     23 C1           7.3310     0.1810    -0.2170 c          1 H5K       0.711600
     24 O2           7.6350     1.2730    -0.6760 o          1 H5K      -0.715000
     25 O1           8.1630    -0.6450     0.1340 o          1 H5K      -0.715000
     26 H7          -4.8840    -2.5740    -0.4470 h4         1 H5K       0.031100
     27 H8          -6.3020     1.9950     0.5260 h4         1 H5K       0.043100
     28 H6          -2.6590    -1.7020     0.4990 hn         1 H5K       0.154000
     29 H5          -0.7120    -1.5330     0.5200 hn         1 H5K       0.139000
     30 H4           1.4590    -2.1070     0.7230 ha         1 H5K       0.094000
     31 H9           0.4070     1.7660    -0.9080 ha         1 H5K       0.119000
     32 H10          2.7850     2.3200    -1.1350 ha         1 H5K       0.113000
     33 H3           3.8110    -2.7060     0.9850 ha         1 H5K       0.090000
     34 H2           6.2030    -2.1460     0.7590 ha         1 H5K       0.132000
     35 H11          5.1360     1.7230    -0.8760 ha         1 H5K       0.134000
@<TRIPOS>BOND
     1     1     2 3   
     2     2     3 1   
     3     3     4 ar  
     4     3     6 ar  
     5     4     5 ar  
     6     5     8 ar  
     7     5    26 1   
     8     6     7 ar  
     9     6    27 1   
    10     7     8 ar  
    11     8     9 1   
    12     9    10 1   
    13     9    28 1   
    14    10    11 2   
    15    10    12 1   
    16    12    13 1   
    17    12    29 1   
    18    13    14 ar  
    19    13    15 ar  
    20    14    18 ar  
    21    14    30 1   
    22    15    16 ar  
    23    15    31 1   
    24    16    17 ar  
    25    16    32 1   
    26    17    18 ar  
    27    17    21 ar  
    28    18    19 ar  
    29    19    20 ar  
    30    19    33 1   
    31    20    22 ar  
    32    20    34 1   
    33    21    22 ar  
    34    21    35 1   
    35    22    23 1   
    36    23    24 1   
    37    23    25 1   
@<TRIPOS>SUBSTRUCTURE
     1 H5K         1 TEMP              0 ****  ****    0 ROOT
