@<TRIPOS>MOLECULE
H5K
   35    37     1     0     0
SMALL
abcg2


@<TRIPOS>ATOM
      1 N5          -9.1750     0.7750     0.7350 n1         1 H5K      -0.451000
      2 C13         -8.0780     0.4790     0.5500 cg         1 H5K       0.241000
      3 C11         -6.7110     0.1280     0.3250 ca         1 H5K       0.301000
      4 N3          -6.4460    -1.1390    -0.0150 nb         1 H5K      -0.577000
      5 C10         -5.1960    -1.4510    -0.2190 ca         1 H5K       0.226900
      6 C12         -5.7030     1.0670     0.4580 ca         1 H5K       0.385900
      7 N4          -4.4320     0.7550     0.2540 nb         1 H5K      -0.656000
      8 C9          -4.1610    -0.4920    -0.0850 ca         1 H5K       0.487900
      9 N2          -2.8820    -0.9130    -0.3120 ns         1 H5K      -0.332900
     10 C8          -1.7140    -0.1610    -0.2790 c          1 H5K       0.659100
     11 O3          -1.6860     1.0370    -0.1220 o          1 H5K      -0.541100
     12 N1          -0.6110    -0.9440    -0.4620 ns         1 H5K      -0.158000
     13 C7           0.7120    -0.4770    -0.4380 ca         1 H5K      -0.059000
     14 C6           1.6740    -1.2610     0.1480 ca         1 H5K      -0.141000
     15 C14          1.0780     0.7450    -1.0550 ca         1 H5K      -0.133000
     16 C15          2.3820     1.1500    -1.0420 ca         1 H5K      -0.071000
     17 C16          3.3950     0.3690    -0.4360 ca         1 H5K      -0.053000
     18 C5           3.0280    -0.8650     0.1570 ca         1 H5K      -0.028000
     19 C4           4.0400    -1.6530     0.7550 ca         1 H5K      -0.160000
     20 C3           5.3400    -1.2300     0.7610 ca         1 H5K      -0.050000
     21 C17          4.7470     0.7740    -0.4140 ca         1 H5K      -0.089000
     22 C2           5.7170     0.0010     0.1720 ca         1 H5K      -0.128600
     23 C1           7.1720     0.4530     0.1930 c          1 H5K       0.711600
     24 O2           7.4290     1.5400    -0.3590 o          1 H5K      -0.715000
     25 O1           7.9810    -0.3060     0.7610 o          1 H5K      -0.715000
     26 H7          -4.9710    -2.4750    -0.4960 h4         1 H5K       0.031100
     27 H8          -5.9260     2.0900     0.7360 h4         1 H5K       0.043100
     28 H6          -2.7930    -1.8940    -0.5350 hn         1 H5K       0.154000
     29 H5          -0.7160    -1.9440    -0.3800 hn         1 H5K       0.139000
     30 H4           1.3990    -2.2000     0.6150 ha         1 H5K       0.094000
     31 H9           0.3360     1.3510    -1.5520 ha         1 H5K       0.119000
     32 H10          2.6550     2.0850    -1.5150 ha         1 H5K       0.113000
     33 H3           3.7690    -2.5990     1.2090 ha         1 H5K       0.090000
     34 H2           6.1040    -1.8410     1.2230 ha         1 H5K       0.132000
     35 H11          5.0180     1.7190    -0.8690 ha         1 H5K       0.134000
@<TRIPOS>BOND
     1     1     2 3   
     2     2     3 1   
     3     3     4 ar  
     4     3     6 ar  
     5     4     5 ar  
     6     5     8 ar  
     7     5    26 1   
     8     6     7 ar  
     9     6    27 1   
    10     7     8 ar  
    11     8     9 1   
    12     9    10 1   
    13     9    28 1   
    14    10    11 2   
    15    10    12 1   
    16    12    13 1   
    17    12    29 1   
    18    13    14 ar  
    19    13    15 ar  
    20    14    18 ar  
    21    14    30 1   
    22    15    16 ar  
    23    15    31 1   
    24    16    17 ar  
    25    16    32 1   
    26    17    18 ar  
    27    17    21 ar  
    28    18    19 ar  
    29    19    20 ar  
    30    19    33 1   
    31    20    22 ar  
    32    20    34 1   
    33    21    22 ar  
    34    21    35 1   
    35    22    23 1   
    36    23    24 1   
    37    23    25 1   
@<TRIPOS>SUBSTRUCTURE
     1 H5K         1 TEMP              0 ****  ****    0 ROOT
