@<TRIPOS>MOLECULE
H5M
   20    20     1     0     0
SMALL
No Charge or Current Charge


@<TRIPOS>ATOM
      1 N            1.0340    20.6300    19.7040 n7         1 H5M      -0.844400
      2 CA           1.6460    19.6300    20.6700 c5         1 H5M       0.011500
      3 C            1.6720    20.0760    22.1850 c          1 H5M       0.708000
      4 O            1.8640    21.2560    22.4540 o          1 H5M      -0.727500
      5 OXT          1.4010    19.2570    23.0520 o          1 H5M      -0.727500
      6 CB           3.1310    19.4040    20.2090 c5         1 H5M       0.158300
      7 CG           3.2980    20.5000    19.1230 c5         1 H5M      -0.148400
      8 CD           1.8810    20.5400    18.5040 c5         1 H5M       0.163500
      9 OB           3.3310    18.0990    19.6580 oh         1 H5M      -0.665000
     10 CD1          1.6450    21.7210    17.5410 c3         1 H5M      -0.089100
     11 H            1.1820    21.5640    20.1110 hn         1 H5M       0.430000
     12 HA           1.0960    18.6800    20.6240 h1         1 H5M       0.072700
     13 HB           3.8410    19.5680    21.0330 h1         1 H5M       0.056700
     14 HG2          3.5690    21.4640    19.5720 hc         1 H5M       0.036200
     15 HG3          4.0730    20.2580    18.3870 hc         1 H5M       0.036200
     16 HD           1.6720    19.6060    17.9600 h1         1 H5M       0.043700
     17 HOB          4.2400    18.0870    19.2880 ho         1 H5M       0.409000
     18 HD11         2.3160    21.6570    16.6760 hc         1 H5M       0.024700
     19 HD12         0.6160    21.7220    17.1640 hc         1 H5M       0.024700
     20 HD13         1.8250    22.6840    18.0340 hc         1 H5M       0.024700
@<TRIPOS>BOND
     1     1     2 1   
     2     1     8 1   
     3     1    11 1   
     4     2     3 1   
     5     2     6 1   
     6     2    12 1   
     7     3     4 1   
     8     3     5 1   
     9     6     7 1   
    10     6     9 1   
    11     6    13 1   
    12     7     8 1   
    13     7    14 1   
    14     7    15 1   
    15     8    10 1   
    16     8    16 1   
    17     9    17 1   
    18    10    18 1   
    19    10    19 1   
    20    10    20 1   
@<TRIPOS>SUBSTRUCTURE
     1 H5M         1 TEMP              0 ****  ****    0 ROOT
