@<TRIPOS>MOLECULE
H5M
   20    20     1     0     0
SMALL
abcg2


@<TRIPOS>ATOM
      1 N            1.0110    20.3530    19.6020 n7         1 H5M      -0.844400
      2 CA           1.6780    19.5960    20.6610 c5         1 H5M       0.011500
      3 C            1.6710    20.3310    22.0260 c          1 H5M       0.708000
      4 O            1.2460    21.5030    22.0420 o          1 H5M      -0.727500
      5 OXT          2.1000    19.6710    22.9910 o          1 H5M      -0.727500
      6 CB           3.1190    19.3240    20.1810 c5         1 H5M       0.158300
      7 CG           3.3300    20.4130    19.1380 c5         1 H5M      -0.148400
      8 CD           1.9500    20.5210    18.4910 c5         1 H5M       0.163500
      9 OB           3.1610    18.0250    19.6120 oh         1 H5M      -0.665000
     10 CD1          1.7090    21.8080    17.7270 c3         1 H5M      -0.089100
     11 H            0.8160    21.2670    20.0030 hn         1 H5M       0.430000
     12 HA           1.1880    18.6270    20.8200 h1         1 H5M       0.072700
     13 HB           3.8400    19.3950    21.0030 h1         1 H5M       0.056700
     14 HG2          3.5770    21.3560    19.6380 hc         1 H5M       0.036200
     15 HG3          4.1380    20.1930    18.4350 hc         1 H5M       0.036200
     16 HD           1.8290    19.6840    17.7930 h1         1 H5M       0.043700
     17 HOB          4.0220    17.9130    19.1970 ho         1 H5M       0.409000
     18 HD11         2.4040    21.8980    16.8920 hc         1 H5M       0.024700
     19 HD12         0.6960    21.8480    17.3230 hc         1 H5M       0.024700
     20 HD13         1.8490    22.6780    18.3730 hc         1 H5M       0.024700
@<TRIPOS>BOND
     1     1     2 1   
     2     1     8 1   
     3     1    11 1   
     4     2     3 1   
     5     2     6 1   
     6     2    12 1   
     7     3     4 1   
     8     3     5 1   
     9     6     7 1   
    10     6     9 1   
    11     6    13 1   
    12     7     8 1   
    13     7    14 1   
    14     7    15 1   
    15     8    10 1   
    16     8    16 1   
    17     9    17 1   
    18    10    18 1   
    19    10    19 1   
    20    10    20 1   
@<TRIPOS>SUBSTRUCTURE
     1 H5M         1 TEMP              0 ****  ****    0 ROOT
