@<TRIPOS>MOLECULE
H5N
   54    57     1     0     0
SMALL
abcg2


@<TRIPOS>ATOM
      1 N1          -0.2140     0.9430    -0.7210 na         1 H5N       0.085100
      2 N3          -8.5500    -0.8160     0.3080 n1         1 H5N       0.137700
      3 C4           6.3630    -2.3490    -0.6480 ca         1 H5N      -0.073000
      4 C5           7.7950    -0.1350     0.1850 ca         1 H5N      -0.117000
      5 C6           6.4720    -0.2780     0.5700 ca         1 H5N      -0.073000
      6 C7           5.7440    -1.3880     0.1430 ca         1 H5N      -0.125000
      7 C8           3.3120    -0.0610     0.1520 c6         1 H5N       0.246300
      8 C10          3.3910     3.0860     1.9750 c3         1 H5N       0.172600
      9 C13         -1.1390     0.3080     0.0110 cc         1 H5N      -0.108300
     10 C15         -3.6590     0.0670    -0.3680 cd         1 H5N      -0.048000
     11 C17         -5.1600    -1.6490     0.4550 cc         1 H5N       0.004900
     12 C20         -4.7810     0.8490    -0.6110 cd         1 H5N       0.180000
     13 C21          1.8280    -0.2880    -0.1670 c6         1 H5N       0.149300
     14 C11          1.4880     2.1040     0.6300 c6         1 H5N       0.132300
     15 C12          1.2080     1.0740    -0.4740 c6         1 H5N       0.065300
     16 C14         -2.3100     0.5250    -0.6760 cc         1 H5N       0.124000
     17 C16         -3.8910    -1.1930     0.1720 cd         1 H5N       0.180000
     18 C18         -6.2810    -0.8630     0.2030 cc         1 H5N       0.457900
     19 C19         -6.0570     0.4000    -0.3350 cc         1 H5N       0.004900
     20 C2           8.4350    -1.0960    -0.5980 ca         1 H5N      -0.056300
     21 C3           7.6970    -2.2040    -1.0030 ca         1 H5N      -0.117000
     22 C9           2.9940     2.1370     0.8670 c6         1 H5N       0.151300
     23 F1          -2.8620    -2.0010     0.4190 f          1 H5N      -0.132000
     24 F2          -5.3240    -2.8640     0.9670 f          1 H5N      -0.140000
     25 F3          -7.0960     1.1980    -0.5820 f          1 H5N      -0.140000
     26 F4          -4.6480     2.0770    -1.0990 f          1 H5N      -0.132000
     27 N2          -7.5050    -1.4220     0.5250 nf         1 H5N      -0.392400
     28 N4          -9.5780    -0.4000     0.1730 n1         1 H5N       0.014000
     29 N5          -2.0190     1.2730    -1.7660 nc         1 H5N      -0.328000
     30 N6          -0.7600     1.5160    -1.7840 nd         1 H5N      -0.194800
     31 O1           3.4540     0.8420     1.2080 os         1 H5N      -0.405000
     32 O3           0.8180     1.7590     1.8160 oh         1 H5N      -0.704000
     33 O4           1.6440    -1.0890    -1.2970 oh         1 H5N      -0.706000
     34 S1           4.0600    -1.6370     0.6330 ss         1 H5N      -0.160000
     35 H5           5.8040    -3.2080    -0.9970 ha         1 H5N       0.132000
     36 H6           8.3450     0.7400     0.5140 ha         1 H5N       0.115500
     37 H7           6.0080     0.4790     1.1890 ha         1 H5N       0.132000
     38 H8           3.8290     0.2920    -0.7520 h2         1 H5N       0.071700
     39 H10          2.9380     4.0630     1.7600 h1         1 H5N       0.036200
     40 H11          2.9730     2.7390     2.9260 h1         1 H5N       0.036200
     41 H14         -0.9160    -0.2180     0.9210 h4         1 H5N       0.184000
     42 H15          1.3530    -0.7200     0.7260 h1         1 H5N       0.070700
     43 H3          10.5260    -1.2320    -0.1360 hc         1 H5N       0.045033
     44 H1          10.1460    -1.5700    -1.8180 hc         1 H5N       0.045033
     45 H2          10.1220     0.0890    -1.2180 hc         1 H5N       0.045033
     46 H12          1.1750     3.0880     0.2630 h1         1 H5N       0.060700
     47 H13          1.6370     1.4460    -1.4090 h1         1 H5N       0.108700
     48 H4           8.1640    -2.9630    -1.6190 ha         1 H5N       0.115500
     49 H9           3.4730     2.4700    -0.0670 h1         1 H5N       0.058700
     50 H17          0.0590     2.3370     1.9280 ho         1 H5N       0.513000
     51 H18          1.9600    -1.9780    -1.1030 ho         1 H5N       0.529000
     52 O2           4.7960     3.1580     2.0130 oh         1 H5N      -0.714000
     53 C1           9.8800    -0.9440    -0.9680 c3         1 H5N      -0.050800
     54 H16          5.0460     3.6950     2.7690 ho         1 H5N       0.510000
@<TRIPOS>BOND
     1     1     9 2   
     2     1    15 1   
     3     1    30 1   
     4     2    27 1   
     5     2    28 3   
     6     3     6 ar  
     7     3    21 ar  
     8     3    35 1   
     9     4     5 ar  
    10     4    20 ar  
    11     4    36 1   
    12     5     6 ar  
    13     5    37 1   
    14     6    34 1   
    15     7    13 1   
    16     7    31 1   
    17     7    34 1   
    18     7    38 1   
    19     8    22 1   
    20     8    39 1   
    21     8    40 1   
    22     8    52 1   
    23     9    16 1   
    24     9    41 1   
    25    10    12 1   
    26    10    16 2   
    27    10    17 1   
    28    11    17 2   
    29    11    18 1   
    30    11    24 1   
    31    12    19 2   
    32    12    26 1   
    33    13    15 1   
    34    13    33 1   
    35    13    42 1   
    36    14    15 1   
    37    14    22 1   
    38    14    32 1   
    39    14    46 1   
    40    15    47 1   
    41    16    29 1   
    42    17    23 1   
    43    18    19 1   
    44    18    27 2   
    45    19    25 1   
    46    20    21 ar  
    47    20    53 1   
    48    21    48 1   
    49    22    31 1   
    50    22    49 1   
    51    29    30 2   
    52    32    50 1   
    53    33    51 1   
    54    43    53 1   
    55    44    53 1   
    56    45    53 1   
    57    52    54 1   
@<TRIPOS>SUBSTRUCTURE
     1 H5N         1 TEMP              0 ****  ****    0 ROOT
