@<TRIPOS>MOLECULE
H5N
   54    57     1     0     0
SMALL
No Charge or Current Charge


@<TRIPOS>ATOM
      1 N1          -0.4330     1.1890    -0.7050 na         1 H5N       0.085100
      2 N3          -8.3980    -0.7680     1.0260 n1         1 H5N       0.137700
      3 C4           6.7140    -2.5150    -0.2240 ca         1 H5N      -0.073000
      4 C5           7.7810     0.0660    -0.4690 ca         1 H5N      -0.117000
      5 C6           6.3870    -0.1180    -0.4570 ca         1 H5N      -0.073000
      6 C7           5.8430    -1.4150    -0.3330 ca         1 H5N      -0.125000
      7 C8           3.2440    -0.0890    -0.3970 c6         1 H5N       0.246300
      8 C10          3.5620     2.7200     2.1050 c3         1 H5N       0.172600
      9 C13         -1.2960     0.2870    -0.1670 cc         1 H5N      -0.108300
     10 C15         -3.8270     0.2120    -0.3970 cd         1 H5N      -0.048000
     11 C17         -5.2400    -1.5100     0.6420 cc         1 H5N       0.004900
     12 C20         -5.0220     0.8410    -0.9640 cd         1 H5N       0.180000
     13 C21          1.6940    -0.2100    -0.5920 c6         1 H5N       0.149300
     14 C11          1.4580     1.9700     0.7610 c6         1 H5N       0.132300
     15 C12          1.0440     1.2110    -0.5390 c6         1 H5N       0.065300
     16 C14         -2.5460     0.7600    -0.6380 cc         1 H5N       0.124000
     17 C16         -3.9820    -0.9910     0.4160 cd         1 H5N       0.180000
     18 C18         -6.4080    -0.8840     0.0930 cc         1 H5N       0.457900
     19 C19         -6.2660     0.2950    -0.7170 cc         1 H5N       0.004900
     20 C2           8.6490    -1.0360    -0.3610 ca         1 H5N      -0.056300
     21 C3           8.1070    -2.3280    -0.2360 ca         1 H5N      -0.117000
     22 C9           3.0190     1.9880     0.8340 c6         1 H5N       0.151300
     23 F1          -2.9230    -1.6170     0.9570 f          1 H5N      -0.132000
     24 F2          -5.3840    -2.6210     1.3940 f          1 H5N      -0.140000
     25 F3          -7.3660     0.8680    -1.2490 f          1 H5N      -0.140000
     26 F4          -4.9500     1.9480    -1.7290 f          1 H5N      -0.132000
     27 N2          -7.5820    -1.4030     0.3220 nf         1 H5N      -0.392400
     28 N4          -9.2440    -0.3100     1.6340 n1         1 H5N       0.014000
     29 N5          -2.3260     1.8910    -1.4020 nc         1 H5N      -0.328000
     30 N6          -1.0330     2.1610    -1.4460 nd         1 H5N      -0.194800
     31 O1           3.5370     0.6340     0.8190 os         1 H5N      -0.405000
     32 O3           0.8830     1.3390     1.9300 oh         1 H5N      -0.704000
     33 O4           1.3720    -0.8650    -1.8410 oh         1 H5N      -0.706000
     34 S1           4.0720    -1.7480    -0.3160 ss         1 H5N      -0.160000
     35 H5           6.3090    -3.5200    -0.1280 ha         1 H5N       0.132000
     36 H6           8.1870     1.0710    -0.5610 ha         1 H5N       0.115500
     37 H7           5.7530     0.7580    -0.5430 ha         1 H5N       0.132000
     38 H8           3.6740     0.4380    -1.2610 h2         1 H5N       0.071700
     39 H10          3.1330     3.7310     2.1260 h1         1 H5N       0.036200
     40 H11          3.1920     2.1910     2.9940 h1         1 H5N       0.036200
     41 H14         -0.9900    -0.5410     0.4540 h4         1 H5N       0.184000
     42 H15          1.3040    -0.8010     0.2510 h1         1 H5N       0.070700
     43 H3          10.5350    -0.6790     0.6470 hc         1 H5N       0.045033
     44 H1          10.6750    -1.7000    -0.7940 hc         1 H5N       0.045033
     45 H2          10.4380     0.0430    -0.9690 hc         1 H5N       0.045033
     46 H12          1.1080     3.0110     0.6840 h1         1 H5N       0.060700
     47 H13          1.4500     1.7770    -1.3900 h1         1 H5N       0.108700
     48 H4           8.7650    -3.1900    -0.1480 ha         1 H5N       0.115500
     49 H9           3.4110     2.5230    -0.0440 h1         1 H5N       0.058700
     50 H17          0.0230     1.7840     2.1140 ho         1 H5N       0.513000
     51 H18          1.6740    -1.8020    -1.7720 ho         1 H5N       0.529000
     52 O2           5.0020     2.7960     2.1420 oh         1 H5N      -0.714000
     53 C1          10.1560    -0.8320    -0.3700 c3         1 H5N      -0.050800
     54 H16          5.2470     3.1800     3.0160 ho         1 H5N       0.510000
@<TRIPOS>BOND
     1     1     9 2   
     2     1    15 1   
     3     1    30 1   
     4     2    27 1   
     5     2    28 3   
     6     3     6 ar  
     7     3    21 ar  
     8     3    35 1   
     9     4     5 ar  
    10     4    20 ar  
    11     4    36 1   
    12     5     6 ar  
    13     5    37 1   
    14     6    34 1   
    15     7    13 1   
    16     7    31 1   
    17     7    34 1   
    18     7    38 1   
    19     8    22 1   
    20     8    39 1   
    21     8    40 1   
    22     8    52 1   
    23     9    16 1   
    24     9    41 1   
    25    10    12 1   
    26    10    16 2   
    27    10    17 1   
    28    11    17 2   
    29    11    18 1   
    30    11    24 1   
    31    12    19 2   
    32    12    26 1   
    33    13    15 1   
    34    13    33 1   
    35    13    42 1   
    36    14    15 1   
    37    14    22 1   
    38    14    32 1   
    39    14    46 1   
    40    15    47 1   
    41    16    29 1   
    42    17    23 1   
    43    18    19 1   
    44    18    27 2   
    45    19    25 1   
    46    20    21 ar  
    47    20    53 1   
    48    21    48 1   
    49    22    31 1   
    50    22    49 1   
    51    29    30 2   
    52    32    50 1   
    53    33    51 1   
    54    43    53 1   
    55    44    53 1   
    56    45    53 1   
    57    52    54 1   
@<TRIPOS>SUBSTRUCTURE
     1 H5N         1 TEMP              0 ****  ****    0 ROOT
