@<TRIPOS>MOLECULE
H5O
   71    76     1     0     0
SMALL
abcg2


@<TRIPOS>ATOM
      1 C13          6.4380     9.2840    63.6250 ca         1 H5O       0.160000
      2 C18         -6.7570    10.1010    62.0930 c6         1 H5O       0.007300
      3 C17         -6.6080    11.1030    60.9440 c6         1 H5O       0.145600
      4 C16         -4.4050    10.4630    60.5670 c6         1 H5O       0.147600
      5 C15         -4.4200     9.3900    61.6520 c6         1 H5O       0.027300
      6 C19         -5.4020     9.7960    62.7480 c6         1 H5O       0.183300
      7 C20         -7.6290    11.7320    63.7970 cc         1 H5O      -0.209000
      8 C21         -8.7640    11.7070    64.5700 cd         1 H5O       0.266500
      9 C22         -9.2340    12.6630    65.5590 ca         1 H5O      -0.210500
     10 C23         -8.5590    13.8490    65.8310 ca         1 H5O       0.121400
     11 C24        -10.0970    14.4120    67.3820 ca         1 H5O       0.118900
     12 C11          7.3480    10.2000    61.6280 ca         1 H5O       0.160000
     13 C12          7.4910     9.8990    62.9710 ca         1 H5O       0.086000
     14 F2           6.5800     8.9980    64.9190 f          1 H5O      -0.155500
     15 F1           8.6130    10.1960    63.6220 f          1 H5O      -0.142000
     16 F            8.3640    10.7940    61.0010 f          1 H5O      -0.155500
     17 C10          6.1880     9.9060    60.9460 ca         1 H5O      -0.136000
     18 C14          5.2650     8.9790    62.9700 ca         1 H5O      -0.136000
     19 C9           5.1300     9.2940    61.6180 ca         1 H5O      -0.057500
     20 C8           3.8830     9.0220    60.9120 cc         1 H5O       0.234500
     21 C7           2.6990     8.4970    61.3760 cd         1 H5O      -0.171000
     22 N1           3.7090     9.3300    59.6060 nc         1 H5O      -0.346000
     23 N2           2.5090     9.0410    59.2570 nd         1 H5O      -0.193800
     24 N            1.8850     8.5350    60.3100 na         1 H5O       0.136800
     25 C6           0.4810     8.1920    60.2090 c6         1 H5O       0.070300
     26 C1          -0.3270     8.8950    61.3040 c6         1 H5O       0.142300
     27 O           -0.1540    10.2730    61.1510 os         1 H5O      -0.446000
     28 C            0.1850    10.9810    62.3240 c3         1 H5O       0.144900
     29 C5           0.2410     6.6840    60.1960 c6         1 H5O       0.134300
     30 O3           0.7660     6.1340    61.3770 oh         1 H5O      -0.710000
     31 C3          -1.2680     6.4630    60.0680 c6         1 H5O       0.132300
     32 C4          -1.6380     4.9960    60.0870 c3         1 H5O       0.173600
     33 O2          -3.0050     4.8720    59.7810 oh         1 H5O      -0.707000
     34 O1          -1.9500     7.1090    61.1280 os         1 H5O      -0.404000
     35 C2          -1.7980     8.5010    61.1050 c6         1 H5O       0.276300
     36 S           -2.7860     9.2180    62.4330 ss         1 H5O      -0.344000
     37 O5          -5.5010     8.7670    63.6880 oh         1 H5O      -0.627000
     38 O4          -5.6860    10.6240    60.0050 os         1 H5O      -0.424000
     39 N3          -7.6990    10.6010    63.0760 na         1 H5O       0.121800
     40 N5          -8.7950     9.9190    63.3730 nc         1 H5O      -0.175800
     41 N4          -9.4400    10.5740    64.2680 nd         1 H5O      -0.350000
     42 C25        -10.3920    12.4530    66.3030 ca         1 H5O       0.121400
     43 N7         -10.8230    13.3190    67.2070 nb         1 H5O      -0.171500
     44 N6          -8.9820    14.7190    66.7340 nb         1 H5O      -0.171500
     45 H21         -6.2950    12.0820    61.3340 h1         1 H5O       0.062200
     46 H20         -7.5670    11.2330    60.4400 h1         1 H5O       0.062200
     47 H18         -3.7390    10.1880    59.7510 h1         1 H5O       0.063700
     48 H19         -4.0400    11.4070    60.9960 h1         1 H5O       0.063700
     49 H5          -4.7200     8.4270    61.2270 h1         1 H5O       0.113700
     50 H7          -5.0270    10.7250    63.2050 h1         1 H5O       0.039700
     51 H23         -6.8140    12.4330    63.7160 h4         1 H5O       0.169000
     52 H24         -7.6460    14.1070    65.3040 h4         1 H5O       0.032100
     53 H25        -10.4460    15.1220    68.1230 h5         1 H5O       0.053100
     54 H16          6.1090    10.1620    59.8980 ha         1 H5O       0.148500
     55 H17          4.4660     8.5030    63.5250 ha         1 H5O       0.148500
     56 H15          2.3940     8.1310    62.3410 h4         1 H5O       0.179000
     57 H4           0.1600     8.5910    59.2430 h1         1 H5O       0.106700
     58 H            0.0010     8.5490    62.2940 h1         1 H5O       0.082700
     59 H8           0.3280    12.0230    62.0410 h1         1 H5O       0.041033
     60 H10         -0.6030    10.9330    63.0800 h1         1 H5O       0.041033
     61 H9           1.1160    10.6140    62.7690 h1         1 H5O       0.041033
     62 H3           0.7290     6.2680    59.3050 h1         1 H5O       0.060700
     63 H14          1.1510     5.2750    61.1840 ho         1 H5O       0.516000
     64 H2          -1.5810     6.8890    59.1000 h1         1 H5O       0.057700
     65 H11         -1.0060     4.4820    59.3510 h1         1 H5O       0.030700
     66 H12         -1.3990     4.5710    61.0700 h1         1 H5O       0.030700
     67 H13         -3.2450     3.9440    59.8540 ho         1 H5O       0.512000
     68 H1          -2.1320     8.9120    60.1420 h2         1 H5O       0.060700
     69 H22         -5.8210     9.1230    64.5230 ho         1 H5O       0.458000
     70 H26        -10.9860    11.5560    66.1620 h4         1 H5O       0.032100
     71 H6          -7.1850     9.1720    61.7120 h1         1 H5O       0.121700
@<TRIPOS>BOND
     1     1    13 ar  
     2     1    14 1   
     3     1    18 ar  
     4     2     3 1   
     5     2     6 1   
     6     2    39 1   
     7     2    71 1   
     8     3    38 1   
     9     3    45 1   
    10     3    46 1   
    11     4     5 1   
    12     4    38 1   
    13     4    47 1   
    14     4    48 1   
    15     5     6 1   
    16     5    36 1   
    17     5    49 1   
    18     6    37 1   
    19     6    50 1   
    20     7     8 2   
    21     7    39 1   
    22     7    51 1   
    23     8     9 1   
    24     8    41 1   
    25     9    10 ar  
    26     9    42 ar  
    27    10    44 ar  
    28    10    52 1   
    29    11    43 ar  
    30    11    44 ar  
    31    11    53 1   
    32    12    13 ar  
    33    12    16 1   
    34    12    17 ar  
    35    13    15 1   
    36    17    19 ar  
    37    17    54 1   
    38    18    19 ar  
    39    18    55 1   
    40    19    20 1   
    41    20    21 2   
    42    20    22 1   
    43    21    24 1   
    44    21    56 1   
    45    22    23 2   
    46    23    24 1   
    47    24    25 1   
    48    25    26 1   
    49    25    29 1   
    50    25    57 1   
    51    26    27 1   
    52    26    35 1   
    53    26    58 1   
    54    27    28 1   
    55    28    59 1   
    56    28    60 1   
    57    28    61 1   
    58    29    30 1   
    59    29    31 1   
    60    29    62 1   
    61    30    63 1   
    62    31    32 1   
    63    31    34 1   
    64    31    64 1   
    65    32    33 1   
    66    32    65 1   
    67    32    66 1   
    68    33    67 1   
    69    34    35 1   
    70    35    36 1   
    71    35    68 1   
    72    37    69 1   
    73    39    40 1   
    74    40    41 2   
    75    42    43 ar  
    76    42    70 1   
@<TRIPOS>SUBSTRUCTURE
     1 H5O         1 TEMP              0 ****  ****    0 ROOT
