@<TRIPOS>MOLECULE
H5O
   71    76     1     0     0
SMALL
No Charge or Current Charge


@<TRIPOS>ATOM
      1 C13          6.5610     8.6080    63.7610 ca         1 H5O       0.160000
      2 C18         -6.7070     9.7490    62.4380 c6         1 H5O       0.007300
      3 C17         -7.0140    10.4600    61.0980 c6         1 H5O       0.145600
      4 C16         -4.6840    10.4650    60.4470 c6         1 H5O       0.147600
      5 C15         -4.2300     9.7590    61.7520 c6         1 H5O       0.027300
      6 C19         -5.2490    10.0500    62.8970 c6         1 H5O       0.183300
      7 C20         -7.8950    11.4060    63.9590 cc         1 H5O      -0.209000
      8 C21         -8.9060    11.2430    64.8620 cd         1 H5O       0.266500
      9 C22         -9.5280    12.2800    65.6970 ca         1 H5O      -0.210500
     10 C23         -9.1090    13.6250    65.6350 ca         1 H5O       0.121400
     11 C24        -10.6660    14.1860    67.2250 ca         1 H5O       0.118900
     12 C11          7.8670     9.1790    61.7990 ca         1 H5O       0.160000
     13 C12          7.7990     8.9240    63.1780 ca         1 H5O       0.086000
     14 F2           6.4780     8.3520    65.0860 f          1 H5O      -0.155500
     15 F1           8.9190     8.9770    63.9400 f          1 H5O      -0.142000
     16 F            9.0530     9.4800    61.2200 f          1 H5O      -0.155500
     17 C10          6.7080     9.1230    61.0080 ca         1 H5O      -0.136000
     18 C14          5.3970     8.5510    62.9740 ca         1 H5O      -0.136000
     19 C9           5.4520     8.8180    61.5840 ca         1 H5O      -0.057500
     20 C8           4.2500     8.7470    60.7350 cc         1 H5O       0.234500
     21 C7           2.9930     8.6330    61.2400 cd         1 H5O      -0.171000
     22 N1           4.2460     8.8000    59.3710 nc         1 H5O      -0.346000
     23 N2           3.0000     8.7150    58.9720 nd         1 H5O      -0.193800
     24 N            2.2180     8.6140    60.0990 na         1 H5O       0.136800
     25 C6           0.7400     8.5070    60.0310 c6         1 H5O       0.070300
     26 C1           0.0270     9.5160    60.9850 c6         1 H5O       0.142300
     27 O            0.4610    10.8560    60.6110 os         1 H5O      -0.446000
     28 C            0.1600    11.9590    61.4850 c3         1 H5O       0.144900
     29 C5           0.2600     7.0450    60.2620 c6         1 H5O       0.134300
     30 O3           0.6580     6.5860    61.5760 oh         1 H5O      -0.710000
     31 C3          -1.2910     7.0400    60.0890 c6         1 H5O       0.132300
     32 C4          -1.9320     5.6220    60.2450 c3         1 H5O       0.173600
     33 O2          -3.3590     5.6280    60.0460 oh         1 H5O      -0.707000
     34 O1          -1.8860     7.9260    61.0650 os         1 H5O      -0.404000
     35 C2          -1.5350     9.3180    60.9130 c6         1 H5O       0.276300
     36 S           -2.4880    10.2260    62.2220 ss         1 H5O      -0.344000
     37 O5          -4.9230     9.2660    64.0570 oh         1 H5O      -0.627000
     38 O4          -6.0340    10.0820    60.1090 os         1 H5O      -0.424000
     39 N3          -7.6990    10.1370    63.4640 na         1 H5O       0.121800
     40 N5          -8.5540     9.2470    64.0420 nc         1 H5O      -0.175800
     41 N4          -9.2850     9.9190    64.8900 nd         1 H5O      -0.350000
     42 C25        -10.5730    11.9800    66.5970 ca         1 H5O       0.121400
     43 N7         -11.1440    12.9310    67.3630 nb         1 H5O      -0.171500
     44 N6          -9.6760    14.5810    66.3980 nb         1 H5O      -0.171500
     45 H21         -7.0020    11.5530    61.2220 h1         1 H5O       0.062200
     46 H20         -8.0120    10.1690    60.7380 h1         1 H5O       0.062200
     47 H18         -4.0240    10.1820    59.6150 h1         1 H5O       0.063700
     48 H19         -4.6310    11.5570    60.5640 h1         1 H5O       0.063700
     49 H5          -4.2380     8.6750    61.5700 h1         1 H5O       0.113700
     50 H7          -5.1750    11.1200    63.1410 h1         1 H5O       0.039700
     51 H23         -7.3340    12.2750    63.6470 h4         1 H5O       0.169000
     52 H24         -8.3110    13.9480    64.9700 h4         1 H5O       0.032100
     53 H25        -11.1260    14.9550    67.8420 h5         1 H5O       0.053100
     54 H16          6.7910     9.3240    59.9430 ha         1 H5O       0.148500
     55 H17          4.4610     8.2930    63.4590 ha         1 H5O       0.148500
     56 H15          2.6030     8.5650    62.2460 h4         1 H5O       0.179000
     57 H4           0.4540     8.7830    59.0060 h1         1 H5O       0.106700
     58 H            0.3490     9.3150    62.0170 h1         1 H5O       0.082700
     59 H8           0.7740    12.8280    61.2180 h1         1 H5O       0.041033
     60 H10         -0.8890    12.2620    61.3950 h1         1 H5O       0.041033
     61 H9           0.3710    11.7030    62.5320 h1         1 H5O       0.041033
     62 H3           0.7060     6.4070    59.4840 h1         1 H5O       0.060700
     63 H14          0.6540     5.6000    61.5650 ho         1 H5O       0.516000
     64 H2          -1.5430     7.4040    59.0820 h1         1 H5O       0.057700
     65 H11         -1.4560     4.9500    59.5180 h1         1 H5O       0.030700
     66 H12         -1.6970     5.2400    61.2470 h1         1 H5O       0.030700
     67 H13         -3.6790     4.7130    60.2290 ho         1 H5O       0.512000
     68 H1          -1.8950     9.6810    59.9390 h2         1 H5O       0.060700
     69 H22         -5.4090     9.6560    64.8160 ho         1 H5O       0.458000
     70 H26        -10.9620    10.9700    66.7120 h4         1 H5O       0.032100
     71 H6          -6.7980     8.6670    62.2700 h1         1 H5O       0.121700
@<TRIPOS>BOND
     1     1    13 ar  
     2     1    14 1   
     3     1    18 ar  
     4     2     3 1   
     5     2     6 1   
     6     2    39 1   
     7     2    71 1   
     8     3    38 1   
     9     3    45 1   
    10     3    46 1   
    11     4     5 1   
    12     4    38 1   
    13     4    47 1   
    14     4    48 1   
    15     5     6 1   
    16     5    36 1   
    17     5    49 1   
    18     6    37 1   
    19     6    50 1   
    20     7     8 2   
    21     7    39 1   
    22     7    51 1   
    23     8     9 1   
    24     8    41 1   
    25     9    10 ar  
    26     9    42 ar  
    27    10    44 ar  
    28    10    52 1   
    29    11    43 ar  
    30    11    44 ar  
    31    11    53 1   
    32    12    13 ar  
    33    12    16 1   
    34    12    17 ar  
    35    13    15 1   
    36    17    19 ar  
    37    17    54 1   
    38    18    19 ar  
    39    18    55 1   
    40    19    20 1   
    41    20    21 2   
    42    20    22 1   
    43    21    24 1   
    44    21    56 1   
    45    22    23 2   
    46    23    24 1   
    47    24    25 1   
    48    25    26 1   
    49    25    29 1   
    50    25    57 1   
    51    26    27 1   
    52    26    35 1   
    53    26    58 1   
    54    27    28 1   
    55    28    59 1   
    56    28    60 1   
    57    28    61 1   
    58    29    30 1   
    59    29    31 1   
    60    29    62 1   
    61    30    63 1   
    62    31    32 1   
    63    31    34 1   
    64    31    64 1   
    65    32    33 1   
    66    32    65 1   
    67    32    66 1   
    68    33    67 1   
    69    34    35 1   
    70    35    36 1   
    71    35    68 1   
    72    37    69 1   
    73    39    40 1   
    74    40    41 2   
    75    42    43 ar  
    76    42    70 1   
@<TRIPOS>SUBSTRUCTURE
     1 H5O         1 TEMP              0 ****  ****    0 ROOT
