@<TRIPOS>MOLECULE
H5P
   28    29     1     0     0
SMALL
No Charge or Current Charge


@<TRIPOS>ATOM
      1 C2         -10.5630    52.7790    51.4420 c          1 H5P       0.569000
      2 O2          -9.6860    52.7630    52.2980 o          1 H5P      -0.552000
      3 N3         -10.4670    52.1990    50.2220 ns         1 H5P      -0.513500
      4 C4         -11.5740    52.1400    49.4680 c          1 H5P       0.604000
      5 O4         -11.6630    51.6560    48.3580 o          1 H5P      -0.607000
      6 N5         -12.5700    52.7070    50.1890 ns         1 H5P      -0.510900
      7 C1         -12.0710    53.2420    51.4630 c5         1 H5P       0.263400
      8 C6         -12.2560    54.8130    51.4260 c5         1 H5P       0.157300
      9 O6         -11.0420    55.5780    51.4070 oh         1 H5P      -0.710000
     10 C3         -12.9660    55.0770    52.7970 c5         1 H5P       0.115300
     11 O3         -11.9870    55.3090    53.8370 oh         1 H5P      -0.711000
     12 C7         -13.7580    53.7400    53.0090 c5         1 H5P       0.121300
     13 O7         -12.8240    52.7190    52.5840 os         1 H5P      -0.441000
     14 C5         -15.1370    53.5940    52.2760 c3         1 H5P       0.227600
     15 O5         -15.2920    54.5820    51.2450 os         1 H5P      -0.610400
     16 P          -15.9400    54.1590    49.8390 p5         1 H5P       1.293900
     17 O1P        -16.0030    55.3630    48.9680 o          1 H5P      -0.886167
     18 O2P        -17.3100    53.6270    50.0650 o          1 H5P      -0.886167
     19 O3P        -15.0730    53.1290    49.2070 o          1 H5P      -0.886167
     20 HN3         -9.6040    51.7840    49.9080 hn         1 H5P       0.308500
     21 HN5        -13.5090    52.8070    49.7870 hn         1 H5P       0.451500
     22 H2         -12.9080    55.1050    50.5900 h1         1 H5P       0.118700
     23 HO2        -10.9010    55.7480    52.3760 ho         1 H5P       0.490000
     24 H3         -13.6490    55.9370    52.7310 h1         1 H5P       0.055700
     25 HO3        -12.4740    55.3470    54.6930 ho         1 H5P       0.472000
     26 H4         -13.9580    53.5760    54.0770 h1         1 H5P       0.031700
     27 H5'1       -15.9320    53.7250    53.0210 h1         1 H5P       0.016200
     28 H5'2       -15.2290    52.5730    51.8820 h1         1 H5P       0.016200
@<TRIPOS>BOND
     1     1     2 2   
     2     1     3 1   
     3     1     7 1   
     4     3     4 1   
     5     3    20 1   
     6     4     5 2   
     7     4     6 1   
     8     6     7 1   
     9     6    21 1   
    10     7     8 1   
    11     7    13 1   
    12     8     9 1   
    13     8    10 1   
    14     8    22 1   
    15     9    23 1   
    16    10    11 1   
    17    10    12 1   
    18    10    24 1   
    19    11    25 1   
    20    12    13 1   
    21    12    14 1   
    22    12    26 1   
    23    14    15 1   
    24    14    27 1   
    25    14    28 1   
    26    15    16 1   
    27    16    17 1   
    28    16    18 1   
    29    16    19 1   
@<TRIPOS>SUBSTRUCTURE
     1 H5P         1 TEMP              0 ****  ****    0 ROOT
