@<TRIPOS>MOLECULE
H5P
   28    29     1     0     0
SMALL
abcg2


@<TRIPOS>ATOM
      1 C2         -10.7120    52.7070    51.4760 c          1 H5P       0.569000
      2 O2         -10.0500    52.6450    52.4880 o          1 H5P      -0.552000
      3 N3         -10.3860    52.2210    50.2480 ns         1 H5P      -0.513500
      4 C4         -11.4560    52.3180    49.3330 c          1 H5P       0.604000
      5 O4         -11.4220    51.8610    48.2000 o          1 H5P      -0.607000
      6 N5         -12.4490    52.9840    49.9460 ns         1 H5P      -0.510900
      7 C1         -12.1380    53.3070    51.3200 c5         1 H5P       0.263400
      8 C6         -12.2340    54.8260    51.6120 c5         1 H5P       0.157300
      9 O6         -10.9630    55.4340    51.5090 oh         1 H5P      -0.710000
     10 C3         -12.9350    54.9140    52.9740 c5         1 H5P       0.115300
     11 O3         -11.9670    54.9070    54.0160 oh         1 H5P      -0.711000
     12 C7         -13.7920    53.6450    52.9680 c5         1 H5P       0.121300
     13 O7         -13.0160    52.6740    52.2250 os         1 H5P      -0.441000
     14 C5         -15.1870    53.8110    52.3850 c3         1 H5P       0.227600
     15 O5         -15.1760    54.5600    51.1840 os         1 H5P      -0.610400
     16 P          -15.9290    53.9750    49.8010 p5         1 H5P       1.293900
     17 O1P        -15.9420    55.1980    48.9060 o          1 H5P      -0.886167
     18 O2P        -17.2860    53.4570    50.2430 o          1 H5P      -0.886167
     19 O3P        -15.0020    52.8560    49.2910 o          1 H5P      -0.886167
     20 HN3         -9.5320    51.7250    50.0360 hn         1 H5P       0.308500
     21 HN5        -13.4590    52.9840    49.6060 hn         1 H5P       0.451500
     22 H2         -12.9190    55.2360    50.8730 h1         1 H5P       0.118700
     23 HO2        -11.0870    56.3650    51.2920 ho         1 H5P       0.490000
     24 H3         -13.5540    55.8120    53.0350 h1         1 H5P       0.055700
     25 HO3        -12.4380    54.9600    54.8570 ho         1 H5P       0.472000
     26 H4         -13.8920    53.2480    53.9810 h1         1 H5P       0.031700
     27 H5'1       -15.8030    54.3300    53.1300 h1         1 H5P       0.016200
     28 H5'2       -15.6190    52.8190    52.2300 h1         1 H5P       0.016200
@<TRIPOS>BOND
     1     1     2 2   
     2     1     3 1   
     3     1     7 1   
     4     3     4 1   
     5     3    20 1   
     6     4     5 2   
     7     4     6 1   
     8     6     7 1   
     9     6    21 1   
    10     7     8 1   
    11     7    13 1   
    12     8     9 1   
    13     8    10 1   
    14     8    22 1   
    15     9    23 1   
    16    10    11 1   
    17    10    12 1   
    18    10    24 1   
    19    11    25 1   
    20    12    13 1   
    21    12    14 1   
    22    12    26 1   
    23    14    15 1   
    24    14    27 1   
    25    14    28 1   
    26    15    16 1   
    27    16    17 1   
    28    16    18 1   
    29    16    19 1   
@<TRIPOS>SUBSTRUCTURE
     1 H5P         1 TEMP              0 ****  ****    0 ROOT
