@<TRIPOS>MOLECULE
H5Q
   54    57     1     0     0
SMALL
No Charge or Current Charge


@<TRIPOS>ATOM
      1 C10        -20.5420     5.6180    -0.4300 c3         1 H5Q       0.171600
      2 C17        -13.9790     7.8460    -0.6920 cc         1 H5Q       0.247500
      3 C21        -12.0660     9.2470     2.2720 ca         1 H5Q       0.045500
      4 C02        -24.6110     9.7260    -4.0220 ca         1 H5Q      -0.064300
      5 C03        -23.7320     8.6300    -3.9500 ca         1 H5Q      -0.110000
      6 C04        -22.4310     8.7900    -3.4400 ca         1 H5Q      -0.083000
      7 C05        -21.9950    10.0550    -2.9900 ca         1 H5Q      -0.112000
      8 C07        -19.4910     8.7090    -2.3280 c6         1 H5Q       0.251300
      9 C09        -19.6290     6.4920    -1.3510 c6         1 H5Q       0.156300
     10 C12        -18.1330     6.5010    -0.8960 c6         1 H5Q       0.133300
     11 C14        -17.3340     7.4080    -1.8830 c6         1 H5Q       0.067300
     12 C16        -15.2730     8.2500    -0.6130 cd         1 H5Q      -0.165000
     13 C18        -12.9200     8.4670     0.1080 ca         1 H5Q      -0.179500
     14 C19        -13.0960     8.6890     1.4910 ca         1 H5Q       0.206500
     15 C23        -10.8280     9.5870     1.6850 ca         1 H5Q       0.292000
     16 C25        -10.6390     9.3480     0.3070 ca         1 H5Q       0.045500
     17 C27        -11.6710     8.7870    -0.4690 ca         1 H5Q       0.206500
     18 C31        -17.9690     8.8330    -1.9790 c6         1 H5Q       0.149300
     19 C33        -22.8780    11.1480    -3.0620 ca         1 H5Q      -0.083000
     20 C34        -24.1770    10.9860    -3.5730 ca         1 H5Q      -0.110000
     21 F20        -14.2580     8.3420     2.0940 f          1 H5Q      -0.146500
     22 F26         -9.4550     9.6590    -0.2830 f          1 H5Q      -0.162500
     23 F28        -11.4600     8.5900    -1.7920 f          1 H5Q      -0.146500
     24 N15        -15.8900     7.4370    -1.5420 na         1 H5Q       0.123800
     25 N24         -9.8120    10.1390     2.4520 nv         1 H5Q      -1.059000
     26 N29        -13.8050     6.8610    -1.6170 nc         1 H5Q      -0.330000
     27 N30        -14.9780     6.5940    -2.1370 nd         1 H5Q      -0.195800
     28 O08        -20.1510     7.8450    -1.3760 os         1 H5Q      -0.416000
     29 O11        -21.9100     5.5500    -0.8870 oh         1 H5Q      -0.725000
     30 O13        -18.0010     6.9770     0.4650 oh         1 H5Q      -0.708000
     31 O32        -17.2680     9.6300    -2.9640 oh         1 H5Q      -0.709000
     32 S06        -20.3460    10.3560    -2.3280 ss         1 H5Q      -0.159000
     33 H102       -20.1110     4.6080    -0.3850 h1         1 H5Q       0.043700
     34 H101       -20.5050     6.0330     0.5860 h1         1 H5Q       0.043700
     35 H012       -26.7180     9.2800    -3.7720 hc         1 H5Q       0.045033
     36 H013       -26.3830    10.4680    -5.0430 hc         1 H5Q       0.045033
     37 H011       -26.0540     8.7550    -5.3290 hc         1 H5Q       0.045033
     38 H041       -21.7840     7.9190    -3.4010 ha         1 H5Q       0.130000
     39 H071       -19.5950     8.2990    -3.3430 h2         1 H5Q       0.072700
     40 H091       -19.6900     6.0730    -2.3670 h1         1 H5Q       0.061700
     41 H121       -17.7470     5.4730    -0.9750 h1         1 H5Q       0.061700
     42 H141       -17.4120     6.9530    -2.8810 h1         1 H5Q       0.107700
     43 H161       -15.7680     9.0040    -0.0170 h4         1 H5Q       0.182000
     44 H311       -17.8970     9.3110    -0.9900 h1         1 H5Q       0.071700
     45 H331       -22.5560    12.1290    -2.7190 ha         1 H5Q       0.130000
     46 H341       -24.8470    11.8420    -3.6180 ha         1 H5Q       0.115500
     47 H241        -9.9070    10.1860     3.4660 hn         1 H5Q       0.478000
     48 H242        -8.8810    10.2600     2.0550 hn         1 H5Q       0.478000
     49 H111       -22.4210     5.0700    -0.1950 ho         1 H5Q       0.511000
     50 H131       -17.2260     6.5190     0.8670 ho         1 H5Q       0.514000
     51 H321       -17.5950    10.5570    -2.8820 ho         1 H5Q       0.527000
     52 F22        -12.2700     9.4480     3.6000 f          1 H5Q      -0.162500
     53 H031       -24.0560     7.6490    -4.2900 ha         1 H5Q       0.115500
     54 C01        -26.0180     9.5470    -4.5720 c3         1 H5Q      -0.048800
@<TRIPOS>BOND
     1     1     9 1   
     2     1    29 1   
     3     1    33 1   
     4     1    34 1   
     5     2    12 2   
     6     2    13 1   
     7     2    26 1   
     8     3    14 ar  
     9     3    15 ar  
    10     3    52 1   
    11     4     5 ar  
    12     4    20 ar  
    13     4    54 1   
    14     5     6 ar  
    15     5    53 1   
    16     6     7 ar  
    17     6    38 1   
    18     7    19 ar  
    19     7    32 1   
    20     8    18 1   
    21     8    28 1   
    22     8    32 1   
    23     8    39 1   
    24     9    10 1   
    25     9    28 1   
    26     9    40 1   
    27    10    11 1   
    28    10    30 1   
    29    10    41 1   
    30    11    18 1   
    31    11    24 1   
    32    11    42 1   
    33    12    24 1   
    34    12    43 1   
    35    13    14 ar  
    36    13    17 ar  
    37    14    21 1   
    38    15    16 ar  
    39    15    25 1   
    40    16    17 ar  
    41    16    22 1   
    42    17    23 1   
    43    18    31 1   
    44    18    44 1   
    45    19    20 ar  
    46    19    45 1   
    47    20    46 1   
    48    24    27 1   
    49    25    47 1   
    50    25    48 1   
    51    26    27 2   
    52    29    49 1   
    53    30    50 1   
    54    31    51 1   
    55    35    54 1   
    56    36    54 1   
    57    37    54 1   
@<TRIPOS>SUBSTRUCTURE
     1 H5Q         1 TEMP              0 ****  ****    0 ROOT
