@<TRIPOS>MOLECULE
H5Q
   54    57     1     0     0
SMALL
abcg2


@<TRIPOS>ATOM
      1 C10        -20.2720     5.4010    -0.2810 c3         1 H5Q       0.171600
      2 C17        -14.1290     8.2410    -0.8310 cc         1 H5Q       0.247500
      3 C21        -11.9580     9.0560     2.1440 ca         1 H5Q       0.045500
      4 C02        -24.4210     9.7110    -4.2650 ca         1 H5Q      -0.064300
      5 C03        -23.9100     8.6200    -3.5590 ca         1 H5Q      -0.110000
      6 C04        -22.7960     8.7440    -2.7380 ca         1 H5Q      -0.083000
      7 C05        -22.1460     9.9740    -2.6310 ca         1 H5Q      -0.112000
      8 C07        -19.7970     8.6770    -1.8590 c6         1 H5Q       0.251300
      9 C09        -19.6000     6.4240    -1.1670 c6         1 H5Q       0.156300
     10 C12        -18.1020     6.5420    -0.9040 c6         1 H5Q       0.133300
     11 C14        -17.5350     7.6430    -1.8180 c6         1 H5Q       0.067300
     12 C16        -15.4730     8.4240    -0.5690 cd         1 H5Q      -0.165000
     13 C18        -12.9750     8.6460    -0.0330 ca         1 H5Q      -0.179500
     14 C19        -13.0350     8.6950     1.3620 ca         1 H5Q       0.206500
     15 C23        -10.7230     9.4010     1.5890 ca         1 H5Q       0.292000
     16 C25        -10.6580     9.3550     0.1940 ca         1 H5Q       0.045500
     17 C27        -11.7390     8.9960    -0.5850 ca         1 H5Q       0.206500
     18 C31        -18.2960     8.9600    -1.6790 c6         1 H5Q       0.149300
     19 C33        -22.6370    11.0720    -3.3380 ca         1 H5Q      -0.083000
     20 C34        -23.7660    10.9370    -4.1360 ca         1 H5Q      -0.110000
     21 F20        -14.1760     8.3600     1.9920 f          1 H5Q      -0.146500
     22 F26         -9.4910     9.6840    -0.4010 f          1 H5Q      -0.162500
     23 F28        -11.5720     9.0110    -1.9180 f          1 H5Q      -0.146500
     24 N15        -16.1070     7.8280    -1.5980 na         1 H5Q       0.123800
     25 N24         -9.6680     9.8170     2.3570 nv         1 H5Q      -1.059000
     26 N29        -14.0280     7.5470    -2.0030 nc         1 H5Q      -0.330000
     27 N30        -15.2210     7.3030    -2.4610 nd         1 H5Q      -0.195800
     28 O08        -20.2370     7.6890    -0.9470 os         1 H5Q      -0.416000
     29 O11        -21.5750     5.1400    -0.8010 oh         1 H5Q      -0.725000
     30 O13        -17.8920     6.8400     0.4710 oh         1 H5Q      -0.708000
     31 O32        -17.8020     9.8290    -2.6820 oh         1 H5Q      -0.709000
     32 S06        -20.7300    10.2090    -1.5790 ss         1 H5Q      -0.159000
     33 H102       -19.6650     4.4890    -0.2800 h1         1 H5Q       0.043700
     34 H101       -20.3260     5.7820     0.7400 h1         1 H5Q       0.043700
     35 H012       -26.5430     9.8900    -4.5690 hc         1 H5Q       0.045033
     36 H013       -25.5820    10.2060    -6.0100 hc         1 H5Q       0.045033
     37 H011       -25.8030     8.5450    -5.4350 hc         1 H5Q       0.045033
     38 H041       -22.4360     7.8890    -2.1830 ha         1 H5Q       0.130000
     39 H071       -19.9820     8.3590    -2.8910 h2         1 H5Q       0.072700
     40 H091       -19.7410     6.1300    -2.2160 h1         1 H5Q       0.061700
     41 H121       -17.6220     5.5960    -1.1680 h1         1 H5Q       0.061700
     42 H141       -17.6240     7.3080    -2.8520 h1         1 H5Q       0.107700
     43 H161       -15.9920     8.9130     0.2330 h4         1 H5Q       0.182000
     44 H311       -18.1400     9.3780    -0.6800 h1         1 H5Q       0.071700
     45 H331       -22.1290    12.0260    -3.2740 ha         1 H5Q       0.130000
     46 H341       -24.1330    11.7990    -4.6820 ha         1 H5Q       0.115500
     47 H241        -9.6840     9.5390     3.3270 hn         1 H5Q       0.478000
     48 H242        -8.7540     9.7560     1.9330 hn         1 H5Q       0.478000
     49 H111       -22.0840     4.6760    -0.1260 ho         1 H5Q       0.511000
     50 H131       -17.0600     6.4440     0.7560 ho         1 H5Q       0.514000
     51 H321       -18.2670    10.6740    -2.6080 ho         1 H5Q       0.527000
     52 F22        -12.0850     9.0670     3.4870 f          1 H5Q      -0.162500
     53 H031       -24.3970     7.6550    -3.6430 ha         1 H5Q       0.115500
     54 C01        -25.6510     9.5780    -5.1200 c3         1 H5Q      -0.048800
@<TRIPOS>BOND
     1     1     9 1   
     2     1    29 1   
     3     1    33 1   
     4     1    34 1   
     5     2    12 2   
     6     2    13 1   
     7     2    26 1   
     8     3    14 ar  
     9     3    15 ar  
    10     3    52 1   
    11     4     5 ar  
    12     4    20 ar  
    13     4    54 1   
    14     5     6 ar  
    15     5    53 1   
    16     6     7 ar  
    17     6    38 1   
    18     7    19 ar  
    19     7    32 1   
    20     8    18 1   
    21     8    28 1   
    22     8    32 1   
    23     8    39 1   
    24     9    10 1   
    25     9    28 1   
    26     9    40 1   
    27    10    11 1   
    28    10    30 1   
    29    10    41 1   
    30    11    18 1   
    31    11    24 1   
    32    11    42 1   
    33    12    24 1   
    34    12    43 1   
    35    13    14 ar  
    36    13    17 ar  
    37    14    21 1   
    38    15    16 ar  
    39    15    25 1   
    40    16    17 ar  
    41    16    22 1   
    42    17    23 1   
    43    18    31 1   
    44    18    44 1   
    45    19    20 ar  
    46    19    45 1   
    47    20    46 1   
    48    24    27 1   
    49    25    47 1   
    50    25    48 1   
    51    26    27 2   
    52    29    49 1   
    53    30    50 1   
    54    31    51 1   
    55    35    54 1   
    56    36    54 1   
    57    37    54 1   
@<TRIPOS>SUBSTRUCTURE
     1 H5Q         1 TEMP              0 ****  ****    0 ROOT
