@<TRIPOS>MOLECULE
H5R
   50    53     1     0     0
SMALL
bcc


@<TRIPOS>ATOM
      1 C13         83.5520   143.1280    15.0920 ca         1 H5R       0.370100
      2 C15         84.5190   141.6510    13.4280 ca         1 H5R      -0.165000
      3 C17         84.7940   139.0260    12.4480 c3         1 H5R       0.124700
      4 C20         79.6810   141.1010    17.1370 c3         1 H5R       0.016700
      5 C21         79.4840   140.6860    15.6870 c6         1 H5R      -0.059700
      6 C22         78.0930   141.1050    15.2080 c6         1 H5R      -0.110900
      7 C26         79.6660   139.1880    15.4670 c6         1 H5R      -0.110900
      8 C01         79.8330   144.7120    20.7730 c3         1 H5R       0.124700
      9 C04         81.2850   143.9220    18.5090 ca         1 H5R      -0.212500
     10 C05         81.1670   145.2300    18.8880 ca         1 H5R       0.155100
     11 C06         81.7870   146.2660    18.1250 ca         1 H5R      -0.165000
     12 C07         82.5110   145.9630    17.0230 ca         1 H5R      -0.133300
     13 C08         82.0290   143.5730    17.3460 ca         1 H5R      -0.056800
     14 C09         82.6670   144.6100    16.5920 ca         1 H5R       0.370100
     15 C11         83.1620   140.7140    15.2020 ca         1 H5R      -0.212500
     16 C12         82.9530   142.0040    15.7450 ca         1 H5R      -0.056800
     17 C14         84.3380   142.9010    13.9300 ca         1 H5R      -0.133300
     18 C16         83.9150   140.5330    14.0720 ca         1 H5R       0.155100
     19 C18         82.1720   142.2570    16.8870 ca         1 H5R       0.030900
     20 C23         77.8650   140.6660    13.7620 c6         1 H5R       0.148800
     21 C25         79.3870   138.8180    14.0120 c6         1 H5R       0.148800
     22 N10         83.3970   144.3810    15.5110 nb         1 H5R      -0.625000
     23 N24         78.0820   139.2460    13.5330 n7         1 H5R      -0.790200
     24 O02         84.0440   139.2740    13.6220 os         1 H5R      -0.314900
     25 O03         80.4980   145.6620    19.9650 os         1 H5R      -0.314900
     26 S19         81.3920   140.9200    17.7510 ss         1 H5R      -0.299000
     27 H1          85.1230   141.5220    12.5400 ha         1 H5R       0.145500
     28 H2          84.7460   137.9540    12.2780 h1         1 H5R       0.043367
     29 H3          84.3750   139.5380    11.5790 h1         1 H5R       0.043367
     30 H4          85.8420   139.3150    12.5610 h1         1 H5R       0.043367
     31 H5          79.3740   142.1370    17.2930 h1         1 H5R       0.068700
     32 H6          79.0750   140.4800    17.8020 h1         1 H5R       0.068700
     33 H7          80.2180   141.2200    15.0690 hc         1 H5R       0.062700
     34 H8          77.9740   142.1890    15.2910 hc         1 H5R       0.045700
     35 H9          77.3310   140.6510    15.8520 hc         1 H5R       0.045700
     36 H10         78.9750   138.6420    16.1210 hc         1 H5R       0.045700
     37 H11         80.6740   138.8700    15.7440 hc         1 H5R       0.045700
     38 H12         79.3530   145.2690    21.5740 h1         1 H5R       0.043367
     39 H13         79.0690   144.1680    20.2120 h1         1 H5R       0.043367
     40 H14         80.5290   143.9920    21.2100 h1         1 H5R       0.043367
     41 H15         80.8350   143.1250    19.0840 ha         1 H5R       0.161000
     42 H16         81.6700   147.2930    18.4470 ha         1 H5R       0.145500
     43 H17         82.9900   146.7400    16.4410 ha         1 H5R       0.151500
     44 H18         82.7160   139.8550    15.6840 ha         1 H5R       0.161000
     45 H19         84.7920   143.7570    13.4480 ha         1 H5R       0.151500
     46 H20         78.5470   141.2220    13.1100 h1         1 H5R       0.053200
     47 H21         76.8520   140.9210    13.4440 h1         1 H5R       0.053200
     48 H22         79.4740   137.7390    13.8720 h1         1 H5R       0.053200
     49 H23         80.1500   139.2780    13.3740 h1         1 H5R       0.053200
     50 H24         77.3670   138.7240    14.0280 hn         1 H5R       0.344800
@<TRIPOS>BOND
     1     1    16 ar  
     2     1    17 ar  
     3     1    22 ar  
     4     2    17 ar  
     5     2    18 ar  
     6     2    27 1   
     7     3    24 1   
     8     3    28 1   
     9     3    29 1   
    10     3    30 1   
    11     4     5 1   
    12     4    26 1   
    13     4    31 1   
    14     4    32 1   
    15     5     6 1   
    16     5     7 1   
    17     5    33 1   
    18     6    20 1   
    19     6    34 1   
    20     6    35 1   
    21     7    21 1   
    22     7    36 1   
    23     7    37 1   
    24     8    25 1   
    25     8    38 1   
    26     8    39 1   
    27     8    40 1   
    28     9    10 ar  
    29     9    13 ar  
    30     9    41 1   
    31    10    11 ar  
    32    10    25 1   
    33    11    12 ar  
    34    11    42 1   
    35    12    14 ar  
    36    12    43 1   
    37    13    14 ar  
    38    13    19 ar  
    39    14    22 ar  
    40    15    16 ar  
    41    15    18 ar  
    42    15    44 1   
    43    16    19 ar  
    44    17    45 1   
    45    18    24 1   
    46    19    26 1   
    47    20    23 1   
    48    20    46 1   
    49    20    47 1   
    50    21    23 1   
    51    21    48 1   
    52    21    49 1   
    53    23    50 1   
@<TRIPOS>SUBSTRUCTURE
     1 H5R         1 TEMP              0 ****  ****    0 ROOT
