@<TRIPOS>MOLECULE
H5R
   50    53     1     0     0
SMALL
No Charge or Current Charge


@<TRIPOS>ATOM
      1 C13         83.5480   143.0930    14.9860 ca         1 H5R       0.239500
      2 C15         84.5630   141.5470    13.3760 ca         1 H5R      -0.147000
      3 C17         85.0230   138.8000    12.5350 c3         1 H5R       0.147900
      4 C20         79.7040   140.9890    17.3010 c3         1 H5R       0.064600
      5 C21         79.4380   140.7570    15.7850 c6         1 H5R      -0.059700
      6 C22         77.9900   141.1550    15.3940 c6         1 H5R      -0.110900
      7 C26         79.7010   139.2870    15.3530 c6         1 H5R      -0.110900
      8 C01         79.7580   144.6360    20.7940 c3         1 H5R       0.147900
      9 C04         81.2940   143.8930    18.4300 ca         1 H5R      -0.194500
     10 C05         81.0950   145.2380    18.8050 ca         1 H5R       0.155100
     11 C06         81.6440   146.2600    18.0230 ca         1 H5R      -0.147000
     12 C07         82.3920   145.9500    16.8760 ca         1 H5R      -0.050000
     13 C08         82.0380   143.5710    17.2680 ca         1 H5R       0.008500
     14 C09         82.6020   144.6150    16.4840 ca         1 H5R       0.239500
     15 C11         83.2950   140.6720    15.2520 ca         1 H5R      -0.194500
     16 C12         83.0270   141.9850    15.7070 ca         1 H5R       0.008500
     17 C14         84.3100   142.8530    13.8270 ca         1 H5R      -0.050000
     18 C16         84.0520   140.4490    14.0950 ca         1 H5R       0.155100
     19 C18         82.2440   142.2260    16.8650 ca         1 H5R      -0.096000
     20 C23         77.7260   140.9020    13.8900 c6         1 H5R       0.148800
     21 C25         79.3980   139.0870    13.8490 c6         1 H5R       0.148800
     22 N10         83.3320   144.3700    15.3730 nb         1 H5R      -0.625000
     23 N24         78.0060   139.4900    13.5310 n7         1 H5R      -0.845400
     24 O02         84.2660   139.1410    13.7100 os         1 H5R      -0.338100
     25 O03         80.3740   145.6020    19.9250 os         1 H5R      -0.338100
     26 S19         81.4920   140.8570    17.7650 ss         1 H5R      -0.220000
     27 H1          85.1540   141.4100    12.4760 ha         1 H5R       0.127500
     28 H2          85.0680   137.7110    12.4140 h1         1 H5R       0.043367
     29 H3          84.5590   139.2230    11.6350 h1         1 H5R       0.043367
     30 H4          86.0520   139.1760    12.6110 h1         1 H5R       0.043367
     31 H5          79.3510   141.9910    17.5730 h1         1 H5R       0.068700
     32 H6          79.1290   140.2590    17.8850 h1         1 H5R       0.068700
     33 H7          80.1280   141.4150    15.2390 hc         1 H5R       0.062700
     34 H8          77.8170   142.2160    15.6200 hc         1 H5R       0.045700
     35 H9          77.2670   140.5860    15.9960 hc         1 H5R       0.045700
     36 H10         79.0790   138.6040    15.9470 hc         1 H5R       0.045700
     37 H11         80.7430   139.0070    15.5510 hc         1 H5R       0.045700
     38 H12         79.2350   145.1420    21.6150 h1         1 H5R       0.043367
     39 H13         79.0250   144.0290    20.2470 h1         1 H5R       0.043367
     40 H14         80.5110   143.9680    21.2330 h1         1 H5R       0.043367
     41 H15         80.8810   143.1030    19.0450 ha         1 H5R       0.143000
     42 H16         81.4940   147.2980    18.3080 ha         1 H5R       0.127500
     43 H17         82.8170   146.7540    16.2810 ha         1 H5R       0.133500
     44 H18         82.9270   139.8050    15.7890 ha         1 H5R       0.143000
     45 H19         84.7090   143.6960    13.2700 ha         1 H5R       0.133500
     46 H20         78.3640   141.5680    13.2880 h1         1 H5R       0.053200
     47 H21         76.6790   141.1440    13.6520 h1         1 H5R       0.053200
     48 H22         79.5490   138.0310    13.5790 h1         1 H5R       0.053200
     49 H23         80.1030   139.6840    13.2500 h1         1 H5R       0.053200
     50 H24         77.3700   138.8920    14.0720 hn         1 H5R       0.400000
@<TRIPOS>BOND
     1     1    16 ar  
     2     1    17 ar  
     3     1    22 ar  
     4     2    17 ar  
     5     2    18 ar  
     6     2    27 1   
     7     3    24 1   
     8     3    28 1   
     9     3    29 1   
    10     3    30 1   
    11     4     5 1   
    12     4    26 1   
    13     4    31 1   
    14     4    32 1   
    15     5     6 1   
    16     5     7 1   
    17     5    33 1   
    18     6    20 1   
    19     6    34 1   
    20     6    35 1   
    21     7    21 1   
    22     7    36 1   
    23     7    37 1   
    24     8    25 1   
    25     8    38 1   
    26     8    39 1   
    27     8    40 1   
    28     9    10 ar  
    29     9    13 ar  
    30     9    41 1   
    31    10    11 ar  
    32    10    25 1   
    33    11    12 ar  
    34    11    42 1   
    35    12    14 ar  
    36    12    43 1   
    37    13    14 ar  
    38    13    19 ar  
    39    14    22 ar  
    40    15    16 ar  
    41    15    18 ar  
    42    15    44 1   
    43    16    19 ar  
    44    17    45 1   
    45    18    24 1   
    46    19    26 1   
    47    20    23 1   
    48    20    46 1   
    49    20    47 1   
    50    21    23 1   
    51    21    48 1   
    52    21    49 1   
    53    23    50 1   
@<TRIPOS>SUBSTRUCTURE
     1 H5R         1 TEMP              0 ****  ****    0 ROOT
