@<TRIPOS>MOLECULE
H5S
   69    73     1     0     0
SMALL
bcc


@<TRIPOS>ATOM
      1 C1           3.7930    -1.3450    -0.1610 c5         1 H5S       0.115900
      2 C3           2.3530     0.1030     1.0010 c          1 H5S       0.744700
      3 C4           1.5480    -0.5970    -0.0100 ce         1 H5S      -0.480800
      4 C5           2.4220    -1.3520    -0.7600 c2         1 H5S       0.274900
      5 C7           5.3990     1.2040     0.1780 ca         1 H5S      -0.142300
      6 C8           4.6750     2.1270    -0.5760 ca         1 H5S      -0.094000
      7 C9           5.2300     2.7950    -1.6590 ca         1 H5S      -0.109300
      8 C10          6.5550     2.5040    -1.9590 ca         1 H5S       0.139900
      9 O13          2.1630    -2.0350    -1.8220 oh         1 H5S      -0.445100
     10 N2           3.6370    -0.3570     0.8920 n          1 H5S      -0.470800
     11 C11          7.3110     1.6060    -1.2380 ca         1 H5S      -0.168000
     12 C12          6.7200     0.9510    -0.1640 ca         1 H5S      -0.099000
     13 O14          2.0010     0.9820     1.7680 o          1 H5S      -0.629500
     14 C15          0.1580    -0.5410    -0.3320 ce         1 H5S       0.747200
     15 S16         -1.8330    -1.0480    -1.7140 sy         1 H5S       1.322700
     16 N17         -0.2010    -1.1360    -1.4420 nf         1 H5S      -0.821300
     17 C18         -2.1600    -0.1320    -0.2400 ca         1 H5S      -0.261500
     18 C19         -0.9610     0.0610     0.4330 ca         1 H5S      -0.159900
     19 C20         -0.9880     0.7180     1.6550 ca         1 H5S      -0.048000
     20 C21         -2.2110     1.1590     2.1380 ca         1 H5S      -0.103000
     21 O22         -2.0910    -0.2540    -2.9010 o          1 H5S      -0.590800
     22 O23         -2.4110    -2.3780    -1.6470 o          1 H5S      -0.590800
     23 C24          4.2370    -2.7630     0.3280 c3         1 H5S      -0.032000
     24 C25          4.5690    -3.6390    -0.8830 c3         1 H5S      -0.091433
     25 C26          5.5000    -2.6380     1.1820 c3         1 H5S      -0.091433
     26 C27          3.1430    -3.4200     1.1680 c3         1 H5S      -0.091433
     27 F28          7.1230     3.1320    -3.0050 f          1 H5S      -0.141900
     28 C29          4.4470     3.7790    -2.4760 c3         1 H5S      -0.043800
     29 C30         -3.3880     0.3000     0.2160 ca         1 H5S       0.030700
     30 C31         -3.4040     0.9720     1.4420 ca         1 H5S      -0.044300
     31 C32         -4.6990     1.4660     2.0130 c6         1 H5S      -0.036100
     32 C33         -5.7860     1.5550     0.9600 c6         1 H5S       0.193800
     33 N34         -5.8130     0.2920     0.2210 n3         1 H5S      -0.715500
     34 C35         -4.6330     0.0910    -0.6040 c6         1 H5S       0.221100
     35 S36         -7.2660    -0.1790    -0.4270 s6         1 H5S       1.228900
     36 O37         -7.0320    -1.4400    -1.1130 o          1 H5S      -0.591300
     37 O38         -8.2460    -0.1240     0.6440 o          1 H5S      -0.591300
     38 C39         -7.6960     1.0490    -1.6390 c3         1 H5S      -0.274300
     39 H1           4.5170    -0.9910    -0.9050 h1         1 H5S       0.095700
     40 H6           5.4890    -0.1250     1.8490 h1         1 H5S       0.075700
     41 H6A          4.3500     1.1810     2.0550 h1         1 H5S       0.075700
     42 H8           3.6450     2.3450    -0.3130 ha         1 H5S       0.143000
     43 HO13         1.1920    -1.9160    -2.0290 ho         1 H5S       0.521000
     44 H11          8.3400     1.4140    -1.5100 ha         1 H5S       0.153000
     45 H12          7.3040     0.2390     0.4060 ha         1 H5S       0.135000
     46 H20         -0.0850     0.8900     2.2170 ha         1 H5S       0.182000
     47 H21         -2.2400     1.6760     3.0880 ha         1 H5S       0.142000
     48 H25          5.3010    -3.1590    -1.5360 hc         1 H5S       0.043144
     49 H25A         5.0030    -4.5800    -0.5410 hc         1 H5S       0.043144
     50 H25B         3.6940    -3.8890    -1.4800 hc         1 H5S       0.043144
     51 H26          5.3020    -2.1530     2.1380 hc         1 H5S       0.043144
     52 H26A         5.8860    -3.6340     1.4040 hc         1 H5S       0.043144
     53 H26B         6.2910    -2.0870     0.6690 hc         1 H5S       0.043144
     54 H27          2.2380    -3.6260     0.5940 hc         1 H5S       0.043144
     55 H27A         3.5010    -4.3760     1.5540 hc         1 H5S       0.043144
     56 H27B         2.8690    -2.8060     2.0280 hc         1 H5S       0.043144
     57 H29          4.9590     4.7380    -2.5580 hc         1 H5S       0.051033
     58 H29A         4.2830     3.4120    -3.4900 hc         1 H5S       0.051033
     59 H29B         3.4720     3.9580    -2.0280 hc         1 H5S       0.051033
     60 H32         -5.0190     0.7910     2.8110 hc         1 H5S       0.069700
     61 H32A        -4.5560     2.4470     2.4700 hc         1 H5S       0.069700
     62 H33         -6.7460     1.7260     1.4420 h1         1 H5S       0.058200
     63 H33A        -5.5980     2.3930     0.2790 h1         1 H5S       0.058200
     64 H35         -4.6070     0.7840    -1.4560 h1         1 H5S       0.082200
     65 H35A        -4.6440    -0.9230    -1.0020 h1         1 H5S       0.082200
     66 H39         -6.9320     1.0840    -2.4140 h1         1 H5S       0.103033
     67 H39A        -8.6510     0.7640    -2.0780 h1         1 H5S       0.103033
     68 H39B        -7.7890     2.0210    -1.1590 h1         1 H5S       0.103033
     69 C6           4.7480     0.4760     1.3270 c3         1 H5S       0.149300
@<TRIPOS>BOND
     1     1     4 1   
     2     1    10 1   
     3     1    23 1   
     4     1    39 1   
     5     2     3 1   
     6     2    10 1   
     7     2    13 2   
     8     3     4 2   
     9     3    14 1   
    10     4     9 1   
    11     5     6 ar  
    12     5    12 ar  
    13     5    69 1   
    14     6     7 ar  
    15     6    42 1   
    16     7     8 ar  
    17     7    28 1   
    18     8    11 ar  
    19     8    27 1   
    20     9    43 1   
    21    10    69 1   
    22    11    12 ar  
    23    11    44 1   
    24    12    45 1   
    25    14    16 2   
    26    14    18 1   
    27    15    16 1   
    28    15    17 1   
    29    15    21 2   
    30    15    22 2   
    31    17    18 ar  
    32    17    29 ar  
    33    18    19 ar  
    34    19    20 ar  
    35    19    46 1   
    36    20    30 ar  
    37    20    47 1   
    38    23    24 1   
    39    23    25 1   
    40    23    26 1   
    41    24    48 1   
    42    24    49 1   
    43    24    50 1   
    44    25    51 1   
    45    25    52 1   
    46    25    53 1   
    47    26    54 1   
    48    26    55 1   
    49    26    56 1   
    50    28    57 1   
    51    28    58 1   
    52    28    59 1   
    53    29    30 ar  
    54    29    34 1   
    55    30    31 1   
    56    31    32 1   
    57    31    60 1   
    58    31    61 1   
    59    32    33 1   
    60    32    62 1   
    61    32    63 1   
    62    33    34 1   
    63    33    35 1   
    64    34    64 1   
    65    34    65 1   
    66    35    36 2   
    67    35    37 2   
    68    35    38 1   
    69    38    66 1   
    70    38    67 1   
    71    38    68 1   
    72    40    69 1   
    73    41    69 1   
@<TRIPOS>SUBSTRUCTURE
     1 H5S         1 TEMP              0 ****  ****    0 ROOT
