@<TRIPOS>MOLECULE
H5S
   69    73     1     0     0
SMALL
No Charge or Current Charge


@<TRIPOS>ATOM
      1 C1           3.7670    -1.4050    -0.1350 c5         1 H5S       0.115900
      2 C3           2.4010     0.4080     0.5580 c          1 H5S       0.602200
      3 C4           1.6110    -0.4290    -0.3920 ce         1 H5S      -0.480800
      4 C5           2.3960    -1.4110    -0.8550 c2         1 H5S       0.274900
      5 C7           5.4830     1.3280    -0.1140 ca         1 H5S      -0.142300
      6 C8           4.9470     2.4550    -0.7690 ca         1 H5S      -0.076000
      7 C9           5.6020     3.0140    -1.8840 ca         1 H5S      -0.109300
      8 C10          6.8030     2.4320    -2.3380 ca         1 H5S       0.175000
      9 O13          2.0430    -2.2630    -1.8250 oh         1 H5S      -0.484100
     10 N2           3.6540    -0.1470     0.6590 n          1 H5S      -0.403800
     11 C11          7.3410     1.3100    -1.6900 ca         1 H5S      -0.150000
     12 C12          6.6830     0.7570    -0.5790 ca         1 H5S      -0.081000
     13 O14          1.8480     2.0220     1.3560 o          1 H5S      -0.554000
     14 C15          0.2080    -0.2310    -0.8440 ce         1 H5S       0.747200
     15 S16         -1.7700    -0.5340    -2.2260 sy         1 H5S       1.181100
     16 N17         -0.1720    -0.6310    -2.0300 nf         1 H5S      -0.821300
     17 C18         -2.1310    -0.0810    -0.5560 ca         1 H5S      -0.261500
     18 C19         -0.9190     0.0280     0.1060 ca         1 H5S      -0.159900
     19 C20         -0.8940     0.2730     1.4900 ca         1 H5S      -0.030000
     20 C21         -2.1200     0.4640     2.1610 ca         1 H5S      -0.085000
     21 O22         -2.0940     0.6060    -3.0860 o          1 H5S      -0.520000
     22 O23         -2.3170    -1.8720    -2.4640 o          1 H5S      -0.520000
     23 C24          4.0390    -2.7000     0.7290 c3         1 H5S      -0.032000
     24 C25          4.2320    -3.9390    -0.1900 c3         1 H5S      -0.091433
     25 C26          5.3370    -2.5570     1.5710 c3         1 H5S      -0.091433
     26 C27          2.8640    -2.9890     1.7080 c3         1 H5S      -0.091433
     27 F28          7.4500     2.9500    -3.4070 f          1 H5S      -0.177000
     28 C29          5.0150     4.2320    -2.5880 c3         1 H5S      -0.043800
     29 C30         -3.3720     0.0890     0.0830 ca         1 H5S       0.030700
     30 C31         -3.3510     0.3880     1.4660 ca         1 H5S      -0.044300
     31 C32         -4.6640     0.5880     2.2230 c6         1 H5S      -0.036100
     32 C33         -5.8590     0.8780     1.2890 c6         1 H5S       0.193800
     33 N34         -5.9090    -0.1070     0.1840 n3         1 H5S      -0.715500
     34 C35         -4.7020    -0.0260    -0.6830 c6         1 H5S       0.221100
     35 S36         -7.4080    -0.2010    -0.6580 s6         1 H5S       1.198100
     36 O37         -7.1750    -1.0400    -1.8380 o          1 H5S      -0.520500
     37 O38         -8.4180    -0.6070     0.3230 o          1 H5S      -0.520500
     38 C39         -7.7350     1.4690    -1.2050 c3         1 H5S      -0.385100
     39 H1           4.5690    -1.3010    -0.8750 h1         1 H5S       0.095700
     40 H6           5.4650     0.1660     1.6990 h1         1 H5S       0.075700
     41 H6A          4.3460     1.5250     1.6980 h1         1 H5S       0.075700
     42 H8           4.0190     2.8960    -0.4100 ha         1 H5S       0.125000
     43 HO13         1.1810    -1.9100    -2.1660 ho         1 H5S       0.560000
     44 H11          8.2670     0.8700    -2.0510 ha         1 H5S       0.135000
     45 H12          7.1050    -0.1150    -0.0830 ha         1 H5S       0.117000
     46 H20          0.0390     0.3130     2.0460 ha         1 H5S       0.164000
     47 H21         -2.1140     0.6650     3.2300 ha         1 H5S       0.124000
     48 H25          5.0130    -3.7540    -0.9380 hc         1 H5S       0.043144
     49 H25A         4.5280    -4.8210     0.3920 hc         1 H5S       0.043144
     50 H25B         3.3100    -4.2040    -0.7180 hc         1 H5S       0.043144
     51 H26          5.2030    -1.8450     2.3930 hc         1 H5S       0.043144
     52 H26A         5.6200    -3.5130     2.0280 hc         1 H5S       0.043144
     53 H26B         6.1760    -2.2230     0.9490 hc         1 H5S       0.043144
     54 H27          1.9290    -3.1810     1.1680 hc         1 H5S       0.043144
     55 H27A         3.0770    -3.8710     2.3240 hc         1 H5S       0.043144
     56 H27B         2.6960    -2.1420     2.3850 hc         1 H5S       0.043144
     57 H29          5.7160     5.0750    -2.5650 hc         1 H5S       0.051033
     58 H29A         4.7950     4.0090    -3.6390 hc         1 H5S       0.051033
     59 H29B         4.0820     4.5660    -2.1190 hc         1 H5S       0.051033
     60 H32         -4.8790    -0.3190     2.8050 hc         1 H5S       0.069700
     61 H32A        -4.5640     1.4060     2.9490 hc         1 H5S       0.069700
     62 H33         -6.7790     0.8450     1.8900 h1         1 H5S       0.058200
     63 H33A        -5.7670     1.9000     0.8910 h1         1 H5S       0.058200
     64 H35         -4.7710     0.8440    -1.3540 h1         1 H5S       0.082200
     65 H35A        -4.6490    -0.9160    -1.3260 h1         1 H5S       0.082200
     66 H39         -6.8930     1.7920    -1.8240 h1         1 H5S       0.103033
     67 H39A        -8.6630     1.4430    -1.7850 h1         1 H5S       0.103033
     68 H39B        -7.8470     2.1000    -0.3180 h1         1 H5S       0.103033
     69 C6           4.7590     0.7220     1.0770 c3         1 H5S       0.149300
@<TRIPOS>BOND
     1     1     4 1   
     2     1    10 1   
     3     1    23 1   
     4     1    39 1   
     5     2     3 1   
     6     2    10 1   
     7     2    13 2   
     8     3     4 2   
     9     3    14 1   
    10     4     9 1   
    11     5     6 ar  
    12     5    12 ar  
    13     5    69 1   
    14     6     7 ar  
    15     6    42 1   
    16     7     8 ar  
    17     7    28 1   
    18     8    11 ar  
    19     8    27 1   
    20     9    43 1   
    21    10    69 1   
    22    11    12 ar  
    23    11    44 1   
    24    12    45 1   
    25    14    16 2   
    26    14    18 1   
    27    15    16 1   
    28    15    17 1   
    29    15    21 2   
    30    15    22 2   
    31    17    18 ar  
    32    17    29 ar  
    33    18    19 ar  
    34    19    20 ar  
    35    19    46 1   
    36    20    30 ar  
    37    20    47 1   
    38    23    24 1   
    39    23    25 1   
    40    23    26 1   
    41    24    48 1   
    42    24    49 1   
    43    24    50 1   
    44    25    51 1   
    45    25    52 1   
    46    25    53 1   
    47    26    54 1   
    48    26    55 1   
    49    26    56 1   
    50    28    57 1   
    51    28    58 1   
    52    28    59 1   
    53    29    30 ar  
    54    29    34 1   
    55    30    31 1   
    56    31    32 1   
    57    31    60 1   
    58    31    61 1   
    59    32    33 1   
    60    32    62 1   
    61    32    63 1   
    62    33    34 1   
    63    33    35 1   
    64    34    64 1   
    65    34    65 1   
    66    35    36 2   
    67    35    37 2   
    68    35    38 1   
    69    38    66 1   
    70    38    67 1   
    71    38    68 1   
    72    40    69 1   
    73    41    69 1   
@<TRIPOS>SUBSTRUCTURE
     1 H5S         1 TEMP              0 ****  ****    0 ROOT
