@<TRIPOS>MOLECULE
H5T
   53    56     1     0     0
SMALL
abcg2


@<TRIPOS>ATOM
      1 C10        -19.5810     6.0750    -0.4820 c3         1 H5T       0.171600
      2 C17        -13.3410     8.4880    -1.8530 cc         1 H5T       0.237500
      3 C21        -10.7510     9.4460     0.7180 ca         1 H5T       0.063000
      4 C02        -23.7610    10.1470    -4.6840 ca         1 H5T      -0.066300
      5 C03        -23.2070     9.0800    -3.9730 ca         1 H5T      -0.107500
      6 C04        -22.0330     9.2230    -3.2470 ca         1 H5T      -0.087000
      7 C05        -21.3650    10.4490    -3.2410 ca         1 H5T      -0.109000
      8 C07        -19.0410     9.1110    -2.4650 c6         1 H5T       0.249300
      9 C09        -18.9180     6.9460    -1.5240 c6         1 H5T       0.155300
     10 C12        -17.4010     7.0030    -1.3700 c6         1 H5T       0.133300
     11 C14        -16.8450     7.9500    -2.4480 c6         1 H5T       0.067300
     12 C16        -14.6410     8.7290    -1.4610 cd         1 H5T      -0.159000
     13 C18        -12.0930     8.9540    -1.2480 ca         1 H5T      -0.163500
     14 C19        -11.9200     8.9970     0.1340 ca         1 H5T       0.200000
     15 C23         -9.6780     9.8830    -0.0530 ca         1 H5T       0.124100
     16 C25         -9.8350     9.8440    -1.4360 ca         1 H5T       0.063000
     17 C27        -11.0090     9.3930    -2.0100 ca         1 H5T       0.200000
     18 C31        -17.5190     9.3200    -2.4170 c6         1 H5T       0.149300
     19 C33        -21.9040    11.5240    -3.9450 ca         1 H5T      -0.087000
     20 C34        -23.0930    11.3710    -4.6470 ca         1 H5T      -0.107500
     21 F20        -12.9020     8.5770     0.9480 f          1 H5T      -0.142000
     22 F26         -8.8330    10.2680    -2.2220 f          1 H5T      -0.150500
     23 F28        -11.0900     9.4180    -3.3480 f          1 H5T      -0.142000
     24 N15        -15.3960     8.0710    -2.3620 na         1 H5T       0.123800
     25 N29        -13.3800     7.6970    -2.9650 nc         1 H5T      -0.326000
     26 N30        -14.6200     7.4510    -3.2690 nd         1 H5T      -0.191800
     27 O08        -19.4700     8.2640    -1.4160 os         1 H5T      -0.414000
     28 O11        -20.9300     5.8400    -0.8860 oh         1 H5T      -0.724000
     29 O13        -17.0770     7.4520    -0.0590 oh         1 H5T      -0.708000
     30 O24         -8.5220    10.3360     0.4660 oh         1 H5T      -0.498100
     31 O32        -17.0550    10.0350    -3.5470 oh         1 H5T      -0.709000
     32 S06        -19.8710    10.7170    -2.3140 ss         1 H5T      -0.154000
     33 H102       -19.0270     5.1330    -0.4100 h1         1 H5T       0.043700
     34 H101       -19.5440     6.5750     0.4880 h1         1 H5T       0.043700
     35 H012       -24.8170     9.4760    -6.4340 hc         1 H5T       0.044700
     36 H011       -25.7450     9.3490    -4.9450 hc         1 H5T       0.044700
     37 H013       -25.4910    10.9310    -5.7000 hc         1 H5T       0.044700
     38 H041       -21.6450     8.3880    -2.6800 ha         1 H5T       0.129000
     39 H071       -19.3120     8.6860    -3.4380 h2         1 H5T       0.072700
     40 H091       -19.1470     6.5420    -2.5180 h1         1 H5T       0.061700
     41 H121       -16.9900     6.0050    -1.5450 h1         1 H5T       0.061700
     42 H141       -17.0330     7.5010    -3.4240 h1         1 H5T       0.108700
     43 H161       -15.0570     9.3000    -0.6520 h4         1 H5T       0.181000
     44 H311       -17.2660     9.8410    -1.4880 h1         1 H5T       0.071700
     45 H331       -21.3910    12.4790    -3.9500 ha         1 H5T       0.129000
     46 H341       -23.5010    12.2180    -5.1870 ha         1 H5T       0.115500
     47 H111       -21.4020     5.4400    -0.1470 ho         1 H5T       0.511000
     48 H131       -16.2730     7.0100     0.2350 ho         1 H5T       0.513000
     49 H241        -8.5550    10.3200     1.4350 ho         1 H5T       0.486000
     50 H321       -17.4790    10.9050    -3.5500 ho         1 H5T       0.527000
     51 F22        -10.6300     9.4600     2.0590 f          1 H5T      -0.150500
     52 H031       -23.7110     8.1200    -3.9740 ha         1 H5T       0.115500
     53 C01        -25.0250     9.9700    -5.4810 c3         1 H5T      -0.048800
@<TRIPOS>BOND
     1     1     9 1   
     2     1    28 1   
     3     1    33 1   
     4     1    34 1   
     5     2    12 2   
     6     2    13 1   
     7     2    25 1   
     8     3    14 ar  
     9     3    15 ar  
    10     3    51 1   
    11     4     5 ar  
    12     4    20 ar  
    13     4    53 1   
    14     5     6 ar  
    15     5    52 1   
    16     6     7 ar  
    17     6    38 1   
    18     7    19 ar  
    19     7    32 1   
    20     8    18 1   
    21     8    27 1   
    22     8    32 1   
    23     8    39 1   
    24     9    10 1   
    25     9    27 1   
    26     9    40 1   
    27    10    11 1   
    28    10    29 1   
    29    10    41 1   
    30    11    18 1   
    31    11    24 1   
    32    11    42 1   
    33    12    24 1   
    34    12    43 1   
    35    13    14 ar  
    36    13    17 ar  
    37    14    21 1   
    38    15    16 ar  
    39    15    30 1   
    40    16    17 ar  
    41    16    22 1   
    42    17    23 1   
    43    18    31 1   
    44    18    44 1   
    45    19    20 ar  
    46    19    45 1   
    47    20    46 1   
    48    24    26 1   
    49    25    26 2   
    50    28    47 1   
    51    29    48 1   
    52    30    49 1   
    53    31    50 1   
    54    35    53 1   
    55    36    53 1   
    56    37    53 1   
@<TRIPOS>SUBSTRUCTURE
     1 H5T         1 TEMP              0 ****  ****    0 ROOT
