@<TRIPOS>MOLECULE
H5T
   53    56     1     0     0
SMALL
No Charge or Current Charge


@<TRIPOS>ATOM
      1 C10        -19.7650     6.2960    -0.6890 c3         1 H5T       0.171600
      2 C17        -13.1740     8.1850    -1.7350 cc         1 H5T       0.237500
      3 C21        -10.9700     9.8310     0.8820 ca         1 H5T       0.063000
      4 C02        -23.9890    10.1370    -4.3560 ca         1 H5T      -0.066300
      5 C03        -23.1370     9.0220    -4.2580 ca         1 H5T      -0.107500
      6 C04        -21.7900     9.1830    -3.8890 ca         1 H5T      -0.087000
      7 C05        -21.2770    10.4690    -3.6140 ca         1 H5T      -0.109000
      8 C07        -18.7710     9.0990    -3.0170 c6         1 H5T       0.249300
      9 C09        -18.9030     7.0180    -1.7770 c6         1 H5T       0.155300
     10 C12        -17.3750     7.0120    -1.4460 c6         1 H5T       0.133300
     11 C14        -16.6310     7.7620    -2.5940 c6         1 H5T       0.067300
     12 C16        -14.4420     8.6510    -1.5990 cd         1 H5T      -0.159000
     13 C18        -12.0300     8.8450    -1.1000 ca         1 H5T      -0.163500
     14 C19        -12.0820     9.2340     0.2580 ca         1 H5T       0.200000
     15 C23         -9.7770    10.0400     0.1630 ca         1 H5T       0.124100
     16 C25         -9.7080     9.6380    -1.1850 ca         1 H5T       0.063000
     17 C27        -10.8210     9.0390    -1.8070 ca         1 H5T       0.200000
     18 C31        -17.2210     9.1940    -2.8080 c6         1 H5T       0.149300
     19 C33        -22.1310    11.5820    -3.7180 ca         1 H5T      -0.087000
     20 C34        -23.4780    11.4190    -4.0870 ca         1 H5T      -0.107500
     21 F20        -13.2010     9.0150     0.9880 f          1 H5T      -0.142000
     22 F26         -8.5660     9.8280    -1.8910 f          1 H5T      -0.150500
     23 F28        -10.7270     8.6810    -3.1090 f          1 H5T      -0.142000
     24 N15        -15.1620     7.7670    -2.3760 na         1 H5T       0.123800
     25 N29        -13.1120     7.0950    -2.5510 nc         1 H5T      -0.326000
     26 N30        -14.3340     6.8240    -2.9410 nd         1 H5T      -0.191800
     27 O08        -19.3780     8.3810    -1.9200 os         1 H5T      -0.414000
     28 O11        -21.1680     6.2380    -1.0240 oh         1 H5T      -0.724000
     29 O13        -17.1120     7.6350    -0.1670 oh         1 H5T      -0.708000
     30 O24         -8.6920    10.6230     0.7710 oh         1 H5T      -0.498100
     31 O32        -16.5780     9.8400    -3.9320 oh         1 H5T      -0.709000
     32 S06        -19.5640    10.7710    -3.1440 ss         1 H5T      -0.154000
     33 H102       -19.3670     5.2800    -0.5590 h1         1 H5T       0.043700
     34 H101       -19.6270     6.8240     0.2650 h1         1 H5T       0.043700
     35 H012       -25.5590    10.0160    -5.8480 hc         1 H5T       0.044700
     36 H011       -25.8350     8.9870    -4.4320 hc         1 H5T       0.044700
     37 H013       -26.0810    10.7340    -4.3140 hc         1 H5T       0.044700
     38 H041       -21.1660     8.2970    -3.8230 ha         1 H5T       0.129000
     39 H071       -18.9730     8.5800    -3.9650 h2         1 H5T       0.072700
     40 H091       -19.0640     6.4870    -2.7280 h1         1 H5T       0.061700
     41 H121       -17.0330     5.9650    -1.4330 h1         1 H5T       0.061700
     42 H141       -16.8080     7.2000    -3.5220 h1         1 H5T       0.108700
     43 H161       -14.8590     9.4880    -1.0560 h4         1 H5T       0.181000
     44 H311       -17.0490     9.7790    -1.8910 h1         1 H5T       0.071700
     45 H331       -21.7490    12.5790    -3.5120 ha         1 H5T       0.129000
     46 H341       -24.1230    12.2920    -4.1630 ha         1 H5T       0.115500
     47 H111       -21.6350     5.8640    -0.2410 ho         1 H5T       0.511000
     48 H131       -16.3320     7.1820     0.2310 ho         1 H5T       0.513000
     49 H241        -8.9280    10.8290     1.7020 ho         1 H5T       0.486000
     50 H321       -16.8610    10.7850    -3.9330 ho         1 H5T       0.527000
     51 F22        -11.0440    10.1990     2.1840 f          1 H5T      -0.150500
     52 H031       -23.5190     8.0250    -4.4670 ha         1 H5T       0.115500
     53 C01        -25.4450     9.9590    -4.7590 c3         1 H5T      -0.048800
@<TRIPOS>BOND
     1     1     9 1   
     2     1    28 1   
     3     1    33 1   
     4     1    34 1   
     5     2    12 2   
     6     2    13 1   
     7     2    25 1   
     8     3    14 ar  
     9     3    15 ar  
    10     3    51 1   
    11     4     5 ar  
    12     4    20 ar  
    13     4    53 1   
    14     5     6 ar  
    15     5    52 1   
    16     6     7 ar  
    17     6    38 1   
    18     7    19 ar  
    19     7    32 1   
    20     8    18 1   
    21     8    27 1   
    22     8    32 1   
    23     8    39 1   
    24     9    10 1   
    25     9    27 1   
    26     9    40 1   
    27    10    11 1   
    28    10    29 1   
    29    10    41 1   
    30    11    18 1   
    31    11    24 1   
    32    11    42 1   
    33    12    24 1   
    34    12    43 1   
    35    13    14 ar  
    36    13    17 ar  
    37    14    21 1   
    38    15    16 ar  
    39    15    30 1   
    40    16    17 ar  
    41    16    22 1   
    42    17    23 1   
    43    18    31 1   
    44    18    44 1   
    45    19    20 ar  
    46    19    45 1   
    47    20    46 1   
    48    24    26 1   
    49    25    26 2   
    50    28    47 1   
    51    29    48 1   
    52    30    49 1   
    53    31    50 1   
    54    35    53 1   
    55    36    53 1   
    56    37    53 1   
@<TRIPOS>SUBSTRUCTURE
     1 H5T         1 TEMP              0 ****  ****    0 ROOT
