@<TRIPOS>MOLECULE
H5U
   62    65     1     0     0
SMALL
No Charge or Current Charge


@<TRIPOS>ATOM
      1 C1           1.0480    -0.1070     0.4050 ce         1 H5U      -0.481800
      2 C2           1.6890     0.9360     0.9440 c2         1 H5U       0.276900
      3 C3           3.1860     0.8970     0.4970 c5         1 H5U       0.115900
      4 N4           3.2220    -0.4300    -0.1910 n          1 H5U      -0.470800
      5 C5           1.9560    -0.9880    -0.2860 c          1 H5U       0.744700
      6 O6           1.6790    -2.0610    -0.7970 o          1 H5U      -0.627500
      7 O7           1.1030     1.8440     1.7580 oh         1 H5U      -0.445100
      8 C8           4.4290    -1.2100    -0.5380 c3         1 H5U       0.148300
      9 C9           5.5310    -1.1200     0.5120 ca         1 H5U      -0.147300
     10 C10          3.6130     2.1540    -0.4400 c3         1 H5U      -0.033000
     11 C11         -0.9230    -0.7860    -2.0090 ca         1 H5U      -0.046000
     12 C12         -1.9780    -0.9370    -2.9360 ca         1 H5U      -0.102000
     13 C13         -3.3260    -0.9170    -2.5080 ca         1 H5U      -0.083000
     14 C14         -3.6460    -0.7440    -1.1440 ca         1 H5U       0.018700
     15 C15         -1.2420    -0.6580    -0.6440 ca         1 H5U      -0.162900
     16 C16         -2.5690    -0.6370    -0.2450 ca         1 H5U      -0.262500
     17 S17         -2.5840    -0.2690     1.4800 sy         1 H5U       1.325700
     18 N18         -0.9980    -0.0440     1.6200 nf         1 H5U      -0.823300
     19 C19         -0.3540    -0.3940     0.5380 ce         1 H5U       0.750200
     20 O21         -2.9730    -1.4830     2.2020 o          1 H5U      -0.601300
     21 C22          3.4080     3.5540     0.2610 c3         1 H5U      -0.090767
     22 C23          5.1250     2.1280    -0.8850 c3         1 H5U      -0.090767
     23 C24          2.7530     2.1600    -1.7360 c3         1 H5U      -0.090767
     24 C25          5.2600    -1.4730     1.8500 ca         1 H5U      -0.090500
     25 C26          6.2730    -1.3880     2.8220 ca         1 H5U      -0.170500
     26 C27          7.5580    -0.9590     2.4580 ca         1 H5U       0.145900
     27 C28          7.8390    -0.6180     1.1270 ca         1 H5U      -0.170500
     28 C29          6.8280    -0.7020     0.1520 ca         1 H5U      -0.090500
     29 F30          8.5300    -0.8790     3.3920 f          1 H5U      -0.138900
     30 C31         -5.0980    -0.6300    -0.6810 c3         1 H5U       0.240100
     31 N32         -5.4470     0.7810    -0.4300 n7         1 H5U      -0.824100
     32 S33         -6.9440     1.1410     0.2030 s6         1 H5U       1.230900
     33 C34         -6.8580     0.5060     1.8680 c3         1 H5U      -0.273300
     34 O35         -7.0250     2.6020     0.2260 o          1 H5U      -0.599800
     35 O36         -7.9160     0.3660    -0.5720 o          1 H5U      -0.599800
     36 H3           3.8350     0.8940     1.3820 h1         1 H5U       0.095700
     37 HO7          0.2090     1.4740     1.9530 ho         1 H5U       0.521000
     38 H8           4.1630    -2.2700    -0.6560 h1         1 H5U       0.075700
     39 H8A          4.8010    -0.8720    -1.5120 h1         1 H5U       0.075700
     40 H11          0.1060    -0.7570    -2.3620 ha         1 H5U       0.182000
     41 H12         -1.7510    -1.0450    -3.9950 ha         1 H5U       0.148000
     42 H13         -4.1230    -1.0040    -3.2450 ha         1 H5U       0.153000
     43 H22          3.9510     3.5910     1.2140 hc         1 H5U       0.043144
     44 H22A         3.7730     4.3750    -0.3680 hc         1 H5U       0.043144
     45 H22B         2.3500     3.7500     0.4640 hc         1 H5U       0.043144
     46 H23          5.3340     1.2770    -1.5400 hc         1 H5U       0.043144
     47 H23A         5.3950     3.0340    -1.4410 hc         1 H5U       0.043144
     48 H23B         5.7840     2.0590    -0.0100 hc         1 H5U       0.043144
     49 H24          1.6840     2.2420    -1.5050 hc         1 H5U       0.043144
     50 H24A         3.0190     3.0080    -2.3800 hc         1 H5U       0.043144
     51 H24B         2.9050     1.2430    -2.3190 hc         1 H5U       0.043144
     52 H25          4.2650    -1.8070     2.1370 ha         1 H5U       0.140500
     53 H26          6.0640    -1.6550     3.8560 ha         1 H5U       0.154500
     54 H28          8.8390    -0.2910     0.8520 ha         1 H5U       0.154500
     55 H29          7.0560    -0.4390    -0.8790 ha         1 H5U       0.140500
     56 H31         -5.7530    -1.0560    -1.4550 h1         1 H5U       0.068700
     57 H31A        -5.2290    -1.2460     0.2190 h1         1 H5U       0.068700
     58 HN32        -4.8240     1.1490     0.2910 hn         1 H5U       0.443800
     59 H34         -6.0250     1.0000     2.3780 h1         1 H5U       0.104367
     60 H34A        -7.8090     0.7470     2.3530 h1         1 H5U       0.104367
     61 H34B        -6.7140    -0.5780     1.8160 h1         1 H5U       0.104367
     62 O20         -3.2970     1.0000     1.6520 o          1 H5U      -0.601300
@<TRIPOS>BOND
     1     1     2 2   
     2     1     5 1   
     3     1    19 1   
     4     2     3 1   
     5     2     7 1   
     6     3     4 1   
     7     3    10 1   
     8     3    36 1   
     9     4     5 1   
    10     4     8 1   
    11     5     6 2   
    12     7    37 1   
    13     8     9 1   
    14     8    38 1   
    15     8    39 1   
    16     9    24 ar  
    17     9    28 ar  
    18    10    21 1   
    19    10    22 1   
    20    10    23 1   
    21    11    12 ar  
    22    11    15 ar  
    23    11    40 1   
    24    12    13 ar  
    25    12    41 1   
    26    13    14 ar  
    27    13    42 1   
    28    14    16 ar  
    29    14    30 1   
    30    15    16 ar  
    31    15    19 1   
    32    16    17 1   
    33    17    18 1   
    34    17    20 2   
    35    17    62 2   
    36    18    19 2   
    37    21    43 1   
    38    21    44 1   
    39    21    45 1   
    40    22    46 1   
    41    22    47 1   
    42    22    48 1   
    43    23    49 1   
    44    23    50 1   
    45    23    51 1   
    46    24    25 ar  
    47    24    52 1   
    48    25    26 ar  
    49    25    53 1   
    50    26    27 ar  
    51    26    29 1   
    52    27    28 ar  
    53    27    54 1   
    54    28    55 1   
    55    30    31 1   
    56    30    56 1   
    57    30    57 1   
    58    31    32 1   
    59    31    58 1   
    60    32    33 1   
    61    32    34 2   
    62    32    35 2   
    63    33    59 1   
    64    33    60 1   
    65    33    61 1   
@<TRIPOS>SUBSTRUCTURE
     1 H5U         1 TEMP              0 ****  ****    0 ROOT
