@<TRIPOS>MOLECULE
H5U
   62    65     1     0     0
SMALL
bcc


@<TRIPOS>ATOM
      1 C1           1.3670     0.3480    -0.0210 ce         1 H5U      -0.481800
      2 C2           2.1400     1.2610     0.6630 c2         1 H5U       0.276900
      3 C3           3.5350     1.3010     0.1250 c5         1 H5U       0.115900
      4 N4           3.5110     0.1850    -0.8040 n          1 H5U      -0.470800
      5 C5           2.2750    -0.3940    -0.9070 c          1 H5U       0.744700
      6 O6           2.0350    -1.3830    -1.5770 o          1 H5U      -0.627500
      7 O7           1.7710     2.0390     1.6220 oh         1 H5U      -0.445100
      8 C8           4.7040    -0.5960    -1.0920 c3         1 H5U       0.148300
      9 C9           5.3240    -1.1760     0.1540 ca         1 H5U      -0.147300
     10 C10          3.8880     2.6830    -0.5180 c3         1 H5U      -0.033000
     11 C11         -0.9580    -1.4200    -1.5640 ca         1 H5U      -0.046000
     12 C12         -2.1150    -2.0430    -2.0250 ca         1 H5U      -0.102000
     13 C13         -3.3330    -1.8710    -1.3890 ca         1 H5U      -0.083000
     14 C14         -3.4430    -1.0650    -0.2540 ca         1 H5U       0.018700
     15 C15         -1.0460    -0.6180    -0.4390 ca         1 H5U      -0.162900
     16 C16         -2.2840    -0.4610     0.1760 ca         1 H5U      -0.262500
     17 S17         -2.1080     0.6730     1.5170 sy         1 H5U       1.325700
     18 N18         -0.4890     0.9150     1.2560 nf         1 H5U      -0.823300
     19 C19         -0.0250     0.2040     0.2590 ce         1 H5U       0.750200
     20 O21         -2.2950     0.0270     2.8030 o          1 H5U      -0.601300
     21 C22          4.0280     3.7420     0.5790 c3         1 H5U      -0.090767
     22 C23          5.2330     2.5780    -1.2400 c3         1 H5U      -0.090767
     23 C24          2.8190     3.1060    -1.5240 c3         1 H5U      -0.090767
     24 C25          4.6510    -2.1440     0.8990 ca         1 H5U      -0.090500
     25 C26          5.2040    -2.6660     2.0570 ca         1 H5U      -0.170500
     26 C27          6.4450    -2.2080     2.4630 ca         1 H5U       0.145900
     27 C28          7.1430    -1.2540     1.7520 ca         1 H5U      -0.170500
     28 C29          6.5680    -0.7410     0.5960 ca         1 H5U      -0.090500
     29 F30          6.9870    -2.7140     3.5820 f          1 H5U      -0.138900
     30 C31         -4.7720    -0.8350     0.4110 c3         1 H5U       0.240100
     31 N32         -5.5320     0.1160    -0.3890 n7         1 H5U      -0.824100
     32 S33         -7.1780     0.1640    -0.2700 s6         1 H5U       1.230900
     33 C34         -7.5640     0.7860     1.3500 c3         1 H5U      -0.273300
     34 O35         -7.6270     1.1330    -1.2540 o          1 H5U      -0.599800
     35 O36         -7.6460    -1.2120    -0.3460 o          1 H5U      -0.599800
     36 H3           4.2530     1.1050     0.9330 h1         1 H5U       0.095700
     37 HO7          0.8040     1.8610     1.8020 ho         1 H5U       0.521000
     38 H8           4.4100    -1.3890    -1.7790 h1         1 H5U       0.075700
     39 H8A          5.4340     0.0120    -1.6200 h1         1 H5U       0.075700
     40 H11         -0.0180    -1.5660    -2.0720 ha         1 H5U       0.182000
     41 H12         -2.0600    -2.6740    -2.9020 ha         1 H5U       0.148000
     42 H13         -4.2140    -2.3700    -1.7720 ha         1 H5U       0.153000
     43 H22          4.7270     3.4260     1.3560 hc         1 H5U       0.043144
     44 H22A         4.4200     4.6610     0.1410 hc         1 H5U       0.043144
     45 H22B         3.0830     3.9920     1.0550 hc         1 H5U       0.043144
     46 H23          5.1760     1.9600    -2.1350 hc         1 H5U       0.043144
     47 H23A         5.5480     3.5730    -1.5580 hc         1 H5U       0.043144
     48 H23B         6.0170     2.1810    -0.5900 hc         1 H5U       0.043144
     49 H24          1.8520     3.2950    -1.0540 hc         1 H5U       0.043144
     50 H24A         3.1220     4.0330    -2.0130 hc         1 H5U       0.043144
     51 H24B         2.6810     2.3560    -2.3050 hc         1 H5U       0.043144
     52 H25          3.6850    -2.5100     0.5730 ha         1 H5U       0.140500
     53 H26          4.6820    -3.4190     2.6320 ha         1 H5U       0.154500
     54 H28          8.1120    -0.9130     2.0900 ha         1 H5U       0.154500
     55 H29          7.1070     0.0100     0.0310 ha         1 H5U       0.140500
     56 H31         -5.3170    -1.7770     0.4460 h1         1 H5U       0.068700
     57 H31A        -4.6450    -0.5070     1.4460 h1         1 H5U       0.068700
     58 HN32        -5.1190     1.0420    -0.4480 hn         1 H5U       0.443800
     59 H34         -7.1780     1.7980     1.4490 h1         1 H5U       0.104367
     60 H34A        -8.6470     0.7900     1.4590 h1         1 H5U       0.104367
     61 H34B        -7.1240     0.1380     2.1050 h1         1 H5U       0.104367
     62 O20         -2.8510     1.8930     1.2530 o          1 H5U      -0.601300
@<TRIPOS>BOND
     1     1     2 2   
     2     1     5 1   
     3     1    19 1   
     4     2     3 1   
     5     2     7 1   
     6     3     4 1   
     7     3    10 1   
     8     3    36 1   
     9     4     5 1   
    10     4     8 1   
    11     5     6 2   
    12     7    37 1   
    13     8     9 1   
    14     8    38 1   
    15     8    39 1   
    16     9    24 ar  
    17     9    28 ar  
    18    10    21 1   
    19    10    22 1   
    20    10    23 1   
    21    11    12 ar  
    22    11    15 ar  
    23    11    40 1   
    24    12    13 ar  
    25    12    41 1   
    26    13    14 ar  
    27    13    42 1   
    28    14    16 ar  
    29    14    30 1   
    30    15    16 ar  
    31    15    19 1   
    32    16    17 1   
    33    17    18 1   
    34    17    20 2   
    35    17    62 2   
    36    18    19 2   
    37    21    43 1   
    38    21    44 1   
    39    21    45 1   
    40    22    46 1   
    41    22    47 1   
    42    22    48 1   
    43    23    49 1   
    44    23    50 1   
    45    23    51 1   
    46    24    25 ar  
    47    24    52 1   
    48    25    26 ar  
    49    25    53 1   
    50    26    27 ar  
    51    26    29 1   
    52    27    28 ar  
    53    27    54 1   
    54    28    55 1   
    55    30    31 1   
    56    30    56 1   
    57    30    57 1   
    58    31    32 1   
    59    31    58 1   
    60    32    33 1   
    61    32    34 2   
    62    32    35 2   
    63    33    59 1   
    64    33    60 1   
    65    33    61 1   
@<TRIPOS>SUBSTRUCTURE
     1 H5U         1 TEMP              0 ****  ****    0 ROOT
