@<TRIPOS>MOLECULE
H5V
   36    38     1     0     0
SMALL
No Charge or Current Charge


@<TRIPOS>ATOM
      1 O3           3.8700     1.0040     1.5140 oh         1 H5V      -0.708000
      2 O4           4.1730    -1.6910    -2.0360 oh         1 H5V      -0.700000
      3 C9           1.5610     1.3580     0.6870 c5         1 H5V       0.113000
      4 C10          0.7180     0.5600    -0.3940 c5         1 H5V       0.318300
      5 C11          2.7270     0.3510     0.9290 c5         1 H5V       0.095300
      6 C12          2.9700    -0.1290    -0.5360 c5         1 H5V       0.164300
      7 C13          0.7980     1.7810     1.9690 c3         1 H5V      -0.109100
      8 C14          3.8410    -1.4100    -0.6630 c3         1 H5V       0.164600
      9 C15         -1.7550    -0.0050    -0.4570 ca         1 H5V       0.154500
     10 O1           1.6330    -0.3640    -1.0420 os         1 H5V      -0.428000
     11 O2           2.1230     2.5630     0.1500 oh         1 H5V      -0.702000
     12 N5          -0.4680    -0.1990     0.0450 na         1 H5V      -0.201400
     13 N6          -2.2190     0.8100    -1.4270 nb         1 H5V      -0.230000
     14 N7          -4.4580    -0.0360    -1.0290 nb         1 H5V      -0.301000
     15 C16         -0.4840    -1.1720     1.0770 cc         1 H5V      -0.169100
     16 C17         -2.6070    -0.8300     0.2320 ca         1 H5V      -0.259800
     17 C18         -1.8080    -1.5560     1.1840 cd         1 H5V      -0.212200
     18 C19         -3.9710    -0.8360    -0.0690 ca         1 H5V       0.432900
     19 C20         -3.5540     0.7510    -1.6630 ca         1 H5V       0.178900
     20 HO3          3.8860     0.7740     2.4750 ho         1 H5V       0.516000
     21 HO4          4.6740    -2.5400    -2.0420 ho         1 H5V       0.505000
     22 HC10         0.3450     1.2790    -1.1340 h2         1 H5V       0.132700
     23 HC11         2.4040    -0.4920     1.5550 h1         1 H5V       0.049700
     24 HC12         3.4380     0.6680    -1.1320 h1         1 H5V       0.092700
     25 H13A         0.4510     0.9140     2.5420 hc         1 H5V       0.052033
     26 H13C         1.4350     2.3730     2.6380 hc         1 H5V       0.052033
     27 H13B        -0.0800     2.3890     1.7220 hc         1 H5V       0.052033
     28 H14A         3.2990    -2.2540    -0.2160 h1         1 H5V       0.023700
     29 H14B         4.7610    -1.2630    -0.0820 h1         1 H5V       0.023700
     30 HO2          3.0450     2.5610     0.5100 ho         1 H5V       0.521000
     31 HN8A        -4.5810    -2.0350     1.4610 hn         1 H5V       0.495500
     32 HN8B        -5.8540    -1.4060     0.4770 hn         1 H5V       0.495500
     33 HC16         0.4000    -1.5010     1.6150 h4         1 H5V       0.216000
     34 HC18        -2.1760    -2.3040     1.8850 ha         1 H5V       0.200000
     35 HC20        -3.9380     1.4040    -2.4440 h5         1 H5V       0.044100
     36 N8          -4.8650    -1.6220     0.5780 nv         1 H5V      -1.073900
@<TRIPOS>BOND
     1     1     5 1   
     2     1    20 1   
     3     2     8 1   
     4     2    21 1   
     5     3     4 1   
     6     3     5 1   
     7     3     7 1   
     8     3    11 1   
     9     4    10 1   
    10     4    12 1   
    11     4    22 1   
    12     5     6 1   
    13     5    23 1   
    14     6     8 1   
    15     6    10 1   
    16     6    24 1   
    17     7    25 1   
    18     7    26 1   
    19     7    27 1   
    20     8    28 1   
    21     8    29 1   
    22     9    12 1   
    23     9    13 ar  
    24     9    16 ar  
    25    11    30 1   
    26    12    15 1   
    27    13    19 ar  
    28    14    18 ar  
    29    14    19 ar  
    30    15    17 2   
    31    15    33 1   
    32    16    17 1   
    33    16    18 ar  
    34    17    34 1   
    35    18    36 1   
    36    19    35 1   
    37    31    36 1   
    38    32    36 1   
@<TRIPOS>SUBSTRUCTURE
     1 H5V         1 TEMP              0 ****  ****    0 ROOT
