@<TRIPOS>MOLECULE
H5V
   36    38     1     0     0
SMALL
bcc


@<TRIPOS>ATOM
      1 O3           3.6180     1.1830     1.4940 oh         1 H5V      -0.585800
      2 O4           4.1440    -1.9750    -1.4620 oh         1 H5V      -0.577800
      3 C9           1.4140     1.3750     0.4230 c5         1 H5V       0.089800
      4 C10          0.8050     0.5120    -0.7000 c5         1 H5V       0.265800
      5 C11          2.5680     0.4770     0.8950 c5         1 H5V       0.072100
      6 C12          3.0240    -0.1620    -0.4110 c5         1 H5V       0.141100
      7 C13          0.4590     1.7750     1.5330 c3         1 H5V      -0.109100
      8 C14          3.6990    -1.4960    -0.2170 c3         1 H5V       0.141400
      9 C15         -1.6110     0.0440    -0.3660 ca         1 H5V       0.482800
     10 O1           1.8330    -0.3090    -1.1790 os         1 H5V      -0.381600
     11 O2           1.9420     2.5060    -0.2330 oh         1 H5V      -0.579800
     12 N5          -0.3030    -0.3180    -0.2730 na         1 H5V      -0.172100
     13 N6          -2.0760     1.1650    -0.9240 nb         1 H5V      -0.756000
     14 N7          -4.2520     0.3830    -0.3420 nb         1 H5V      -0.827000
     15 C16         -0.2330    -1.5330     0.3740 cc         1 H5V      -0.119100
     16 C17         -2.3830    -0.9570     0.2270 ca         1 H5V      -0.390400
     17 C18         -1.4850    -1.9610     0.6960 cd         1 H5V      -0.162200
     18 C19         -3.7740    -0.7330     0.2150 ca         1 H5V       0.761200
     19 C20         -3.3900     1.2490    -0.8720 ca         1 H5V       0.704900
     20 HO3          3.4330     1.2840     2.4330 ho         1 H5V       0.417000
     21 HO4          4.5890    -2.8150    -1.3180 ho         1 H5V       0.406000
     22 HC10         0.4150     1.1540    -1.4940 h2         1 H5V       0.132700
     23 HC11         2.1740    -0.2940     1.5710 h1         1 H5V       0.049700
     24 HC12         3.7150     0.5180    -0.9280 h1         1 H5V       0.092700
     25 H13A         0.0500     0.9080     2.0520 hc         1 H5V       0.052033
     26 H13C         0.9860     2.3810     2.2730 hc         1 H5V       0.052033
     27 H13B        -0.3700     2.3690     1.1470 hc         1 H5V       0.052033
     28 H14A         3.0010    -2.1940     0.2670 h1         1 H5V       0.023700
     29 H14B         4.5300    -1.3430     0.4850 h1         1 H5V       0.023700
     30 HO2          2.6630     2.8520     0.3090 ho         1 H5V       0.422000
     31 HN8A        -4.3370    -2.4030     1.2610 hn         1 H5V       0.440300
     32 HN8B        -5.6190    -1.3610     0.7930 hn         1 H5V       0.440300
     33 HC16         0.7110    -2.0270     0.5380 h4         1 H5V       0.166000
     34 HC18        -1.7230    -2.8870     1.1940 ha         1 H5V       0.150000
     35 HC20        -3.8330     2.1360    -1.3130 h5         1 H5V       0.044100
     36 N8          -4.6470    -1.6090     0.7290 nv         1 H5V      -0.963500
@<TRIPOS>BOND
     1     1     5 1   
     2     1    20 1   
     3     2     8 1   
     4     2    21 1   
     5     3     4 1   
     6     3     5 1   
     7     3     7 1   
     8     3    11 1   
     9     4    10 1   
    10     4    12 1   
    11     4    22 1   
    12     5     6 1   
    13     5    23 1   
    14     6     8 1   
    15     6    10 1   
    16     6    24 1   
    17     7    25 1   
    18     7    26 1   
    19     7    27 1   
    20     8    28 1   
    21     8    29 1   
    22     9    12 1   
    23     9    13 ar  
    24     9    16 ar  
    25    11    30 1   
    26    12    15 1   
    27    13    19 ar  
    28    14    18 ar  
    29    14    19 ar  
    30    15    17 2   
    31    15    33 1   
    32    16    17 1   
    33    16    18 ar  
    34    17    34 1   
    35    18    36 1   
    36    19    35 1   
    37    31    36 1   
    38    32    36 1   
@<TRIPOS>SUBSTRUCTURE
     1 H5V         1 TEMP              0 ****  ****    0 ROOT
