@<TRIPOS>MOLECULE
H5W
   52    54     1     0     0
SMALL
abcg2


@<TRIPOS>ATOM
      1 F23          8.3700     1.3750    -0.9520 f          1 H5W      -0.181000
      2 C23          7.7260     0.3150    -0.4350 ca         1 H5W       0.170000
      3 C24          8.4670    -0.6640     0.2040 ca         1 H5W      -0.150000
      4 C25          7.7840    -1.7520     0.7270 ca         1 H5W      -0.085000
      5 C26          6.4040    -1.8450     0.6070 ca         1 H5W      -0.119000
      6 C22          6.3560     0.2490    -0.5680 ca         1 H5W      -0.145000
      7 C21          5.6700    -0.8480    -0.0390 ca         1 H5W      -0.020800
      8 C13          4.2140    -0.9940    -0.1350 ce         1 H5W      -0.168200
      9 C12          3.3600    -0.1370    -0.6960 c2         1 H5W      -0.197200
     10 C11          1.8830    -0.3520    -0.7610 c3         1 H5W      -0.051200
     11 C10          1.1310     0.7460    -0.0230 c3         1 H5W       0.165600
     12 O09         -0.2490     0.5200    -0.1740 os         1 H5W      -0.460000
     13 C3          -1.0560     1.3910     0.5750 c5         1 H5W       0.168300
     14 C2          -1.0910     2.8250     0.0220 c5         1 H5W       0.113800
     15 N1          -2.4260     3.2680     0.3700 n7         1 H5W      -0.857400
     16 C5          -3.2880     2.1600     0.0000 c5         1 H5W       0.147800
     17 C4          -2.5430     0.9420     0.5550 c5         1 H5W      -0.053700
     18 C08         -2.8270    -0.3350    -0.2340 c3         1 H5W      -0.113700
     19 C06         -4.2860    -0.6890    -0.1700 ca         1 H5W       0.395300
     20 N01         -4.7410    -1.0950     1.0180 nb         1 H5W      -0.753000
     21 C02         -6.0300    -1.3900     1.1420 ca         1 H5W       0.597900
     22 N02         -6.4670    -1.7560     2.3850 nv         1 H5W      -1.052900
     23 C03         -6.9300    -1.2970     0.0660 ca         1 H5W      -0.232000
     24 C05         -5.1010    -0.5740    -1.2810 ca         1 H5W      -0.218000
     25 C04         -6.4610    -0.8860    -1.1640 ca         1 H5W      -0.000300
     26 C07         -7.3730    -0.7720    -2.3470 c3         1 H5W      -0.053800
     27 H1           9.5420    -0.5760     0.2890 ha         1 H5W       0.132000
     28 H2           8.3340    -2.5350     1.2310 ha         1 H5W       0.118000
     29 H3           5.8890    -2.7020     1.0210 ha         1 H5W       0.117000
     30 H4           5.8360     1.0480    -1.0810 ha         1 H5W       0.130000
     31 H5           3.8170    -1.9050     0.3040 ha         1 H5W       0.174000
     32 H6           3.7230     0.7870    -1.1390 ha         1 H5W       0.171000
     33 H7           1.5640    -0.3490    -1.8090 hc         1 H5W       0.060700
     34 H8           1.6210    -1.3270    -0.3430 hc         1 H5W       0.060700
     35 H9           1.4110     0.7390     1.0400 h1         1 H5W       0.024200
     36 H10          1.4230     1.7260    -0.4230 h1         1 H5W       0.024200
     37 H11         -0.7020     1.4100     1.6140 h1         1 H5W       0.046700
     38 H12         -0.3310     3.4770     0.4580 h1         1 H5W       0.040200
     39 H13         -0.9160     2.7830    -1.0660 h1         1 H5W       0.040200
     40 H14         -2.6780     4.1220    -0.1100 hn         1 H5W       0.415000
     41 H16         -4.2880     2.2760     0.4230 h1         1 H5W       0.040700
     42 H17         -3.4040     2.0560    -1.0910 h1         1 H5W       0.040700
     43 H18         -2.8610     0.7730     1.5870 hc         1 H5W       0.080700
     44 H19         -2.5270    -0.2080    -1.2760 hc         1 H5W       0.063200
     45 H20         -2.2430    -1.1640     0.1730 hc         1 H5W       0.063200
     46 H21         -5.7560    -2.0710     3.0240 hn         1 H5W       0.466500
     47 H22         -7.3230    -2.2820     2.4380 hn         1 H5W       0.466500
     48 H23         -7.9750    -1.5450     0.2080 ha         1 H5W       0.118000
     49 H24         -4.6910    -0.2450    -2.2280 ha         1 H5W       0.121000
     50 H25         -7.3950     0.2530    -2.7220 hc         1 H5W       0.046033
     51 H26         -7.0260    -1.4020    -3.1680 hc         1 H5W       0.046033
     52 H27         -8.3930    -1.0640    -2.1020 hc         1 H5W       0.046033
@<TRIPOS>BOND
     1     1     2 1   
     2     2     3 ar  
     3     2     6 ar  
     4     3     4 ar  
     5     3    27 1   
     6     4     5 ar  
     7     4    28 1   
     8     5     7 ar  
     9     5    29 1   
    10     6     7 ar  
    11     6    30 1   
    12     7     8 1   
    13     8     9 2   
    14     8    31 1   
    15     9    10 1   
    16     9    32 1   
    17    10    11 1   
    18    10    33 1   
    19    10    34 1   
    20    11    12 1   
    21    11    35 1   
    22    11    36 1   
    23    12    13 1   
    24    13    14 1   
    25    13    17 1   
    26    13    37 1   
    27    14    15 1   
    28    14    38 1   
    29    14    39 1   
    30    15    16 1   
    31    15    40 1   
    32    16    17 1   
    33    16    41 1   
    34    16    42 1   
    35    17    18 1   
    36    17    43 1   
    37    18    19 1   
    38    18    44 1   
    39    18    45 1   
    40    19    20 ar  
    41    19    24 ar  
    42    20    21 ar  
    43    21    22 1   
    44    21    23 ar  
    45    22    46 1   
    46    22    47 1   
    47    23    25 ar  
    48    23    48 1   
    49    24    25 ar  
    50    24    49 1   
    51    25    26 1   
    52    26    50 1   
    53    26    51 1   
    54    26    52 1   
@<TRIPOS>SUBSTRUCTURE
     1 H5W         1 TEMP              0 ****  ****    0 ROOT
