@<TRIPOS>MOLECULE
H5W
   52    54     1     0     0
SMALL
No Charge or Current Charge


@<TRIPOS>ATOM
      1 F23          8.4550     1.2560    -1.2760 f          1 H5W      -0.181000
      2 C23          7.7380     0.2660    -0.7010 ca         1 H5W       0.170000
      3 C24          8.4010    -0.7740    -0.0320 ca         1 H5W      -0.150000
      4 C25          7.6540    -1.8000     0.5700 ca         1 H5W      -0.085000
      5 C26          6.2500    -1.7800     0.4970 ca         1 H5W      -0.119000
      6 C22          6.3370     0.2880    -0.7760 ca         1 H5W      -0.145000
      7 C21          5.5770    -0.7410    -0.1780 ca         1 H5W      -0.020800
      8 C13          4.0850    -0.7580    -0.2290 ce         1 H5W      -0.168200
      9 C12          3.3030     0.0090    -1.0230 c2         1 H5W      -0.197200
     10 C11          1.7880    -0.0340    -1.0540 c3         1 H5W      -0.051200
     11 C10          1.1550     0.7910     0.0830 c3         1 H5W       0.165600
     12 O09         -0.2740     0.6800    -0.0420 os         1 H5W      -0.460000
     13 C3          -1.0850     1.3650     0.9520 c5         1 H5W       0.168300
     14 C2          -1.0570     2.9150     0.6720 c5         1 H5W       0.113800
     15 N1          -2.3930     3.2700     0.1110 n7         1 H5W      -0.857400
     16 C5          -2.9280     2.0000    -0.4250 c5         1 H5W       0.147800
     17 C4          -2.5820     1.0000     0.7070 c5         1 H5W      -0.053700
     18 C08         -2.8850    -0.4930     0.4010 c3         1 H5W      -0.113700
     19 C06         -4.3660    -0.7870     0.2160 ca         1 H5W       0.395300
     20 N01         -5.0690    -1.0740     1.3350 nb         1 H5W      -0.753000
     21 C02         -6.3610    -1.3200     1.1830 ca         1 H5W       0.597900
     22 N02         -6.9410    -1.5950     2.3530 nv         1 H5W      -1.052900
     23 C03         -7.0450    -1.3130    -0.0350 ca         1 H5W      -0.232000
     24 C05         -4.9540    -0.7500    -1.0630 ca         1 H5W      -0.218000
     25 C04         -6.3250    -1.0190    -1.2020 ca         1 H5W      -0.000300
     26 C07         -7.0020    -0.9850    -2.5620 c3         1 H5W      -0.053800
     27 H1           9.4870    -0.7810     0.0200 ha         1 H5W       0.132000
     28 H2           8.1610    -2.6080     1.0920 ha         1 H5W       0.118000
     29 H3           5.6830    -2.5810     0.9670 ha         1 H5W       0.117000
     30 H4           5.8570     1.1130    -1.2910 ha         1 H5W       0.130000
     31 H5           3.6170    -1.4780     0.4460 ha         1 H5W       0.174000
     32 H6           3.7340     0.7260    -1.7220 ha         1 H5W       0.171000
     33 H7           1.4240     0.3510    -2.0140 hc         1 H5W       0.060700
     34 H8           1.4390    -1.0710    -0.9790 hc         1 H5W       0.060700
     35 H9           1.4890     0.3970     1.0520 h1         1 H5W       0.024200
     36 H10          1.4830     1.8350     0.0010 h1         1 H5W       0.024200
     37 H11         -0.7430     1.0950     1.9610 h1         1 H5W       0.046700
     38 H12         -0.8630     3.4840     1.5910 h1         1 H5W       0.040200
     39 H13         -0.2670     3.1750    -0.0460 h1         1 H5W       0.040200
     40 H14         -2.3020     3.9730    -0.6350 hn         1 H5W       0.415000
     41 H16         -4.0090     2.0640    -0.6140 h1         1 H5W       0.040700
     42 H17         -2.4300     1.7260    -1.3670 h1         1 H5W       0.040700
     43 H18         -3.1630     1.2490     1.6030 hc         1 H5W       0.080700
     44 H19         -2.3460    -0.8070    -0.5010 hc         1 H5W       0.063200
     45 H20         -2.4860    -1.1160     1.2110 hc         1 H5W       0.063200
     46 H21         -6.2960    -1.7960     3.1060 hn         1 H5W       0.466500
     47 H22         -7.8040    -2.1260     2.3380 hn         1 H5W       0.466500
     48 H23         -8.1090    -1.5260    -0.0720 ha         1 H5W       0.118000
     49 H24         -4.3490    -0.5110    -1.9330 ha         1 H5W       0.121000
     50 H25         -7.3390     0.0300    -2.8040 hc         1 H5W       0.046033
     51 H26         -6.3180    -1.3090    -3.3550 hc         1 H5W       0.046033
     52 H27         -7.8770    -1.6450    -2.5900 hc         1 H5W       0.046033
@<TRIPOS>BOND
     1     1     2 1   
     2     2     3 ar  
     3     2     6 ar  
     4     3     4 ar  
     5     3    27 1   
     6     4     5 ar  
     7     4    28 1   
     8     5     7 ar  
     9     5    29 1   
    10     6     7 ar  
    11     6    30 1   
    12     7     8 1   
    13     8     9 2   
    14     8    31 1   
    15     9    10 1   
    16     9    32 1   
    17    10    11 1   
    18    10    33 1   
    19    10    34 1   
    20    11    12 1   
    21    11    35 1   
    22    11    36 1   
    23    12    13 1   
    24    13    14 1   
    25    13    17 1   
    26    13    37 1   
    27    14    15 1   
    28    14    38 1   
    29    14    39 1   
    30    15    16 1   
    31    15    40 1   
    32    16    17 1   
    33    16    41 1   
    34    16    42 1   
    35    17    18 1   
    36    17    43 1   
    37    18    19 1   
    38    18    44 1   
    39    18    45 1   
    40    19    20 ar  
    41    19    24 ar  
    42    20    21 ar  
    43    21    22 1   
    44    21    23 ar  
    45    22    46 1   
    46    22    47 1   
    47    23    25 ar  
    48    23    48 1   
    49    24    25 ar  
    50    24    49 1   
    51    25    26 1   
    52    26    50 1   
    53    26    51 1   
    54    26    52 1   
@<TRIPOS>SUBSTRUCTURE
     1 H5W         1 TEMP              0 ****  ****    0 ROOT
