@<TRIPOS>MOLECULE
H5X
   47    49     1     0     0
SMALL
abcg2


@<TRIPOS>ATOM
      1 C10         39.0290    23.7440    28.5160 ca         1 H5X      -0.330500
      2 C13         43.4260    26.2130    27.6890 c          1 H5X       0.621700
      3 C15         41.8190    28.0140    27.0450 ca         1 H5X      -0.029000
      4 C17         39.5170    28.0030    27.7710 ca         1 H5X       0.063200
      5 C20         35.8650    28.9300    28.3750 c5         1 H5X      -0.068400
      6 C21         36.2240    29.7530    27.1170 c5         1 H5X      -0.053200
      7 C22         37.7010    29.5310    26.9690 c2         1 H5X      -0.196200
      8 C24         39.5190    23.2800    27.3000 ca         1 H5X      -0.014000
      9 C26         37.2750    23.3460    26.4210 ca         1 H5X       0.036000
     10 N           41.2890    25.0700    29.2140 nu         1 H5X      -0.945100
     11 O           34.8800    24.4940    29.2670 o          1 H5X      -0.693533
     12 C08         36.8020    23.8100    27.6460 ca         1 H5X      -0.246500
     13 C09         37.6780    24.0100    28.7030 ca         1 H5X       0.062000
     14 C11         41.0460    26.2500    28.5050 ca         1 H5X       0.397000
     15 C12         42.0900    26.8310    27.7530 ca         1 H5X      -0.224600
     16 C14         45.6520    26.4160    26.9160 c3         1 H5X       0.155900
     17 C16         40.5680    28.5870    27.0400 ca         1 H5X      -0.165000
     18 C18         38.1550    28.5370    27.7460 ce         1 H5X      -0.092400
     19 C19         37.0220    27.9260    28.5490 c5         1 H5X      -0.044200
     20 C23         39.7900    26.8570    28.5180 ca         1 H5X      -0.176000
     21 C25         38.6290    23.0800    26.2520 ca         1 H5X      -0.162000
     22 O03         40.8930    22.8580    30.1720 o          1 H5X      -0.551000
     23 O04         44.3190    26.9550    27.0310 os         1 H5X      -0.442100
     24 O05         43.7210    25.1280    28.1770 o          1 H5X      -0.526000
     25 O06         39.4320    24.7350    30.8890 o          1 H5X      -0.551000
     26 O07         34.3490    22.9860    27.4120 o          1 H5X      -0.693533
     27 S           40.1600    24.0580    29.8450 sy         1 H5X       1.205600
     28 S01         35.0580    24.1920    27.8460 s6         1 H5X       1.278100
     29 H1          42.6170    28.4700    26.4780 ha         1 H5X       0.119000
     30 H2          35.8240    29.5930    29.2410 hc         1 H5X       0.051200
     31 H3          34.8970    28.4370    28.2920 hc         1 H5X       0.051200
     32 H4          35.9630    30.8100    27.2110 hc         1 H5X       0.048700
     33 H5          35.7020    29.3850    26.2260 hc         1 H5X       0.048700
     34 H6          38.3000    30.0890    26.2610 ha         1 H5X       0.170000
     35 H8          40.5770    23.0930    27.1680 ha         1 H5X       0.102000
     36 H9          36.5880    23.1980    25.5980 ha         1 H5X       0.127000
     37 H10         42.1960    24.6400    29.0190 hn         1 H5X       0.546000
     38 H12         37.3140    24.3840    29.6470 ha         1 H5X       0.162000
     39 H13         46.2160    27.1620    26.3650 h1         1 H5X       0.047700
     40 H14         46.0810    26.2640    27.9050 h1         1 H5X       0.047700
     41 H15         45.6310    25.4720    26.3740 h1         1 H5X       0.047700
     42 H16         40.4000    29.4870    26.4670 ha         1 H5X       0.115000
     43 H18         36.7660    26.9430    28.1420 hc         1 H5X       0.073200
     44 H19         37.2820    27.7720    29.5980 hc         1 H5X       0.073200
     45 H20         39.0040    26.4270    29.1140 ha         1 H5X       0.148000
     46 H21         38.9950    22.7230    25.2980 ha         1 H5X       0.100000
     47 O1          34.8170    25.3460    26.9740 o          1 H5X      -0.693533
@<TRIPOS>BOND
     1     1     8 ar  
     2     1    13 ar  
     3     1    27 1   
     4     2    15 1   
     5     2    23 1   
     6     2    24 2   
     7     3    15 ar  
     8     3    17 ar  
     9     3    29 1   
    10     4    17 ar  
    11     4    18 1   
    12     4    20 ar  
    13     5     6 1   
    14     5    19 1   
    15     5    30 1   
    16     5    31 1   
    17     6     7 1   
    18     6    32 1   
    19     6    33 1   
    20     7    18 2   
    21     7    34 1   
    22     8    21 ar  
    23     8    35 1   
    24     9    12 ar  
    25     9    21 ar  
    26     9    36 1   
    27    10    14 1   
    28    10    27 1   
    29    10    37 1   
    30    11    28 1   
    31    12    13 ar  
    32    12    28 1   
    33    13    38 1   
    34    14    15 ar  
    35    14    20 ar  
    36    16    23 1   
    37    16    39 1   
    38    16    40 1   
    39    16    41 1   
    40    17    42 1   
    41    18    19 1   
    42    19    43 1   
    43    19    44 1   
    44    20    45 1   
    45    21    46 1   
    46    22    27 2   
    47    25    27 2   
    48    26    28 1   
    49    28    47 1   
@<TRIPOS>SUBSTRUCTURE
     1 H5X         1 TEMP              0 ****  ****    0 ROOT
