@<TRIPOS>MOLECULE
H5X
   47    49     1     0     0
SMALL
No Charge or Current Charge


@<TRIPOS>ATOM
      1 C10         39.6550    23.4900    28.5080 ca         1 H5X      -0.330500
      2 C13         42.3170    25.8110    27.5430 c          1 H5X       0.621700
      3 C15         40.7170    27.6470    26.8640 ca         1 H5X      -0.029000
      4 C17         38.8230    28.3020    28.2570 ca         1 H5X       0.063200
      5 C20         36.3090    30.7740    29.5850 c5         1 H5X      -0.068400
      6 C21         35.7590    30.4640    28.1570 c5         1 H5X      -0.053200
      7 C22         36.8650    29.6560    27.5170 c2         1 H5X      -0.196200
      8 C24         40.6760    22.6780    27.9760 ca         1 H5X      -0.014000
      9 C26         39.4460    22.5140    25.8800 ca         1 H5X       0.036000
     10 N           40.6570    25.5740    29.9340 nu         1 H5X      -0.945100
     11 O           35.9300    24.0410    26.3770 o          1 H5X      -0.693533
     12 C08         38.4190    23.3210    26.4070 ca         1 H5X      -0.246500
     13 C09         38.5300    23.8170    27.7220 ca         1 H5X       0.062000
     14 C11         40.3370    26.5220    28.9830 ca         1 H5X       0.397000
     15 C12         41.1090    26.6740    27.8110 ca         1 H5X      -0.224600
     16 C14         43.8190    24.9740    25.8540 c3         1 H5X       0.155900
     17 C16         39.5880    28.4500    27.0870 ca         1 H5X      -0.165000
     18 C18         37.6220    29.1570    28.5060 ce         1 H5X      -0.092400
     19 C19         37.1850    29.5210    29.9130 c5         1 H5X      -0.044200
     20 C23         39.2150    27.3350    29.1980 ca         1 H5X      -0.176000
     21 C25         40.5680    22.1950    26.6630 ca         1 H5X      -0.162000
     22 O03         40.7350    23.3620    30.9540 o          1 H5X      -0.551000
     23 O04         42.6940    25.7920    26.2250 os         1 H5X      -0.442100
     24 O05         42.9100    25.1910    28.4180 o          1 H5X      -0.526000
     25 O06         38.5020    24.6020    30.6670 o          1 H5X      -0.551000
     26 O07         36.7710    22.5160    24.5840 o          1 H5X      -0.693533
     27 S           39.8040    24.1650    30.1610 sy         1 H5X       1.205600
     28 S01         36.9580    23.7470    25.3670 s6         1 H5X       1.278100
     29 H1          41.2870    27.7970    25.9490 ha         1 H5X       0.119000
     30 H2          36.9290    31.6780    29.5680 hc         1 H5X       0.051200
     31 H3          35.5140    30.9400    30.3210 hc         1 H5X       0.051200
     32 H4          35.5400    31.3790    27.5930 hc         1 H5X       0.048700
     33 H5          34.8330    29.8780    28.2020 hc         1 H5X       0.048700
     34 H6          37.0120    29.4960    26.4480 ha         1 H5X       0.170000
     35 H8          41.5550    22.4290    28.5680 ha         1 H5X       0.102000
     36 H9          39.3800    22.1350    24.8610 ha         1 H5X       0.127000
     37 H10         41.5860    25.1920    29.7870 hn         1 H5X       0.546000
     38 H12         37.7490    24.4610    28.1270 ha         1 H5X       0.162000
     39 H13         44.0080    25.0510    24.7760 h1         1 H5X       0.047700
     40 H14         44.7270    25.2930    26.3820 h1         1 H5X       0.047700
     41 H15         43.6300    23.9190    26.0920 h1         1 H5X       0.047700
     42 H16         39.3200    29.1990    26.3480 ha         1 H5X       0.115000
     43 H18         36.5970    28.7150    30.3690 hc         1 H5X       0.073200
     44 H19         38.0250    29.7560    30.5770 hc         1 H5X       0.073200
     45 H20         38.6410    27.2040    30.1090 ha         1 H5X       0.148000
     46 H21         41.3570    21.5730    26.2490 ha         1 H5X       0.100000
     47 O1          37.4690    24.9040    24.6190 o          1 H5X      -0.693533
@<TRIPOS>BOND
     1     1     8 ar  
     2     1    13 ar  
     3     1    27 1   
     4     2    15 1   
     5     2    23 1   
     6     2    24 2   
     7     3    15 ar  
     8     3    17 ar  
     9     3    29 1   
    10     4    17 ar  
    11     4    18 1   
    12     4    20 ar  
    13     5     6 1   
    14     5    19 1   
    15     5    30 1   
    16     5    31 1   
    17     6     7 1   
    18     6    32 1   
    19     6    33 1   
    20     7    18 2   
    21     7    34 1   
    22     8    21 ar  
    23     8    35 1   
    24     9    12 ar  
    25     9    21 ar  
    26     9    36 1   
    27    10    14 1   
    28    10    27 1   
    29    10    37 1   
    30    11    28 1   
    31    12    13 ar  
    32    12    28 1   
    33    13    38 1   
    34    14    15 ar  
    35    14    20 ar  
    36    16    23 1   
    37    16    39 1   
    38    16    40 1   
    39    16    41 1   
    40    17    42 1   
    41    18    19 1   
    42    19    43 1   
    43    19    44 1   
    44    20    45 1   
    45    21    46 1   
    46    22    27 2   
    47    25    27 2   
    48    26    28 1   
    49    28    47 1   
@<TRIPOS>SUBSTRUCTURE
     1 H5X         1 TEMP              0 ****  ****    0 ROOT
