@<TRIPOS>MOLECULE
H5Y
   58    60     1     0     0
SMALL
bcc


@<TRIPOS>ATOM
      1 C10          0.3670    -3.9370    -0.2380 ca         1 H5Y       0.139100
      2 C20          5.0130     1.0600    -0.2300 ca         1 H5Y      -0.108600
      3 C21          6.1490     1.7380    -0.9990 c          1 H5Y       0.927200
      4 C24          3.6920     1.4270    -0.4460 ca         1 H5Y      -0.182300
      5 C26         -0.2870     2.4580    -0.0240 cc         1 H5Y       0.314200
      6 C28         -4.5390     0.6130     0.3500 c3         1 H5Y       0.099000
      7 C01         -2.6230     0.8000     2.9820 c3         1 H5Y      -0.116100
      8 C02         -2.9230     1.7520     1.8360 c3         1 H5Y       0.113000
      9 C05         -0.8280     1.1580    -0.0460 cc         1 H5Y      -0.356900
     10 C06          0.2690     0.3210     0.0160 cd         1 H5Y       0.041700
     11 C07          0.3310    -1.1390    -0.0590 ca         1 H5Y      -0.035000
     12 C08          1.1830    -1.7860    -0.9550 ca         1 H5Y      -0.056000
     13 C09          1.2060    -3.1620    -1.0460 ca         1 H5Y      -0.194000
     14 C11         -0.4930    -3.3030     0.6540 ca         1 H5Y      -0.194000
     15 C12         -0.5030    -1.9170     0.7330 ca         1 H5Y      -0.056000
     16 C16          2.7070     0.7770     0.2810 ca         1 H5Y       0.447800
     17 C18          4.1970    -0.5310     1.3590 ca         1 H5Y       0.372200
     18 C19          5.2640     0.0510     0.6950 ca         1 H5Y      -0.210300
     19 C29         -5.3310     1.6090    -0.4920 c3         1 H5Y       0.145800
     20 C31         -7.5380     1.1790     0.3780 c3         1 H5Y       0.153100
     21 C32         -7.2620     1.8580    -1.8860 c3         1 H5Y       0.153100
     22 N03         -3.1760     1.0640     0.5760 n          1 H5Y      -0.483800
     23 N15          1.3510     1.1370     0.0920 na         1 H5Y       0.094600
     24 N17          2.9340    -0.1690     1.1690 nb         1 H5Y      -0.706000
     25 N25          1.0230     2.4320     0.0530 nd         1 H5Y      -0.489800
     26 N30         -6.6700     1.1360    -0.7800 n3         1 H5Y      -0.713600
     27 O13          0.4570    -5.2690    -0.3910 os         1 H5Y      -0.321900
     28 O22          7.2990     1.3630    -0.7160 o          1 H5Y      -0.808800
     29 O23          5.8070     2.5960    -1.8300 o          1 H5Y      -0.808800
     30 O27         -2.4600     0.0500    -1.3100 o          1 H5Y      -0.597100
     31 H1           3.4420     2.1920    -1.1670 ha         1 H5Y       0.178000
     32 H2          -0.8110     3.4010    -0.0830 h4         1 H5Y       0.029100
     33 H3          -5.0010     0.4690     1.3280 h1         1 H5Y       0.056200
     34 H4          -4.5340    -0.3570    -0.1450 h1         1 H5Y       0.056200
     35 H5          -2.5360     1.3530     3.9170 hc         1 H5Y       0.040033
     36 H6          -3.4110     0.0550     3.1040 hc         1 H5Y       0.040033
     37 H7          -1.6820     0.2760     2.8170 hc         1 H5Y       0.040033
     38 H8          -3.8100     2.3450     2.0630 h1         1 H5Y       0.048200
     39 H9          -2.1100     2.4630     1.7220 h1         1 H5Y       0.048200
     40 H10          1.8300    -1.2100    -1.6050 ha         1 H5Y       0.138000
     41 H11          1.8680    -3.6510    -1.7490 ha         1 H5Y       0.134500
     42 H12         -1.1590    -3.8630     1.2960 ha         1 H5Y       0.134500
     43 H13         -1.1740    -1.4450     1.4400 ha         1 H5Y       0.138000
     44 H14         -0.1750    -5.9740     1.4680 h1         1 H5Y       0.034367
     45 H15         -1.4310    -5.9200     0.2110 h1         1 H5Y       0.034367
     46 H16         -0.1350    -7.1240     0.1210 h1         1 H5Y       0.034367
     47 H17          4.3650    -1.3180     2.0850 h4         1 H5Y       0.001100
     48 H18          6.2730    -0.2770     0.8950 ha         1 H5Y       0.159000
     49 H19         -5.3360     2.5950     0.0030 h1         1 H5Y       0.040200
     50 H20         -4.8060     1.7400    -1.4410 h1         1 H5Y       0.040200
     51 H21         -8.5140     0.7630     0.1230 h1         1 H5Y       0.027033
     52 H22         -7.1370     0.5800     1.1960 h1         1 H5Y       0.027033
     53 H23         -7.6980     2.2000     0.7580 h1         1 H5Y       0.027033
     54 H24         -7.4140     2.9290    -1.6780 h1         1 H5Y       0.027033
     55 H25         -6.6300     1.7760    -2.7710 h1         1 H5Y       0.027033
     56 H26         -8.2350     1.4280    -2.1300 h1         1 H5Y       0.027033
     57 C14         -0.3700    -6.1000     0.4000 c3         1 H5Y       0.129700
     58 C04         -2.2210     0.7160    -0.3110 c          1 H5Y       0.721700
@<TRIPOS>BOND
     1     1    13 ar  
     2     1    14 ar  
     3     1    27 1   
     4     2     3 1   
     5     2     4 ar  
     6     2    18 ar  
     7     3    28 1   
     8     3    29 1   
     9     4    16 ar  
    10     4    31 1   
    11     5     9 1   
    12     5    25 2   
    13     5    32 1   
    14     6    19 1   
    15     6    22 1   
    16     6    33 1   
    17     6    34 1   
    18     7     8 1   
    19     7    35 1   
    20     7    36 1   
    21     7    37 1   
    22     8    22 1   
    23     8    38 1   
    24     8    39 1   
    25     9    10 2   
    26     9    58 1   
    27    10    11 1   
    28    10    23 1   
    29    11    12 ar  
    30    11    15 ar  
    31    12    13 ar  
    32    12    40 1   
    33    13    41 1   
    34    14    15 ar  
    35    14    42 1   
    36    15    43 1   
    37    16    23 1   
    38    16    24 ar  
    39    17    18 ar  
    40    17    24 ar  
    41    17    47 1   
    42    18    48 1   
    43    19    26 1   
    44    19    49 1   
    45    19    50 1   
    46    20    26 1   
    47    20    51 1   
    48    20    52 1   
    49    20    53 1   
    50    21    26 1   
    51    21    54 1   
    52    21    55 1   
    53    21    56 1   
    54    22    58 1   
    55    23    25 1   
    56    27    57 1   
    57    30    58 2   
    58    44    57 1   
    59    45    57 1   
    60    46    57 1   
@<TRIPOS>SUBSTRUCTURE
     1 H5Y         1 TEMP              0 ****  ****    0 ROOT
