@<TRIPOS>MOLECULE
H5Y
   58    60     1     0     0
SMALL
No Charge or Current Charge


@<TRIPOS>ATOM
      1 C10          1.0440    -4.1620    -0.1450 ca         1 H5Y       0.139100
      2 C20          4.6630     0.9940    -0.8840 ca         1 H5Y      -0.108600
      3 C21          5.4850     1.4370    -2.0810 c          1 H5Y       0.716600
      4 C24          3.2750     1.2470    -0.8080 ca         1 H5Y      -0.099000
      5 C26         -0.6730     2.0870     0.5810 cc         1 H5Y       0.248900
      6 C28         -4.7910     0.7380     0.4600 c3         1 H5Y       0.099000
      7 C01         -3.7570     0.7210     3.4520 c3         1 H5Y      -0.116100
      8 C02         -3.1990     1.5350     2.2670 c3         1 H5Y       0.113000
      9 C05         -0.9720     0.7210     0.3980 cc         1 H5Y      -0.291600
     10 C06          0.2190     0.0790     0.1400 cd         1 H5Y      -0.009000
     11 C07          0.5000    -1.3770     0.0310 ca         1 H5Y      -0.035000
     12 C08          1.5600    -1.8620    -0.7680 ca         1 H5Y      -0.038000
     13 C09          1.8240    -3.2400    -0.8560 ca         1 H5Y      -0.176000
     14 C11         -0.0140    -3.6940     0.6590 ca         1 H5Y      -0.176000
     15 C12         -0.2800    -2.3150     0.7420 ca         1 H5Y      -0.038000
     16 C16          2.5180     0.8220     0.3080 ca         1 H5Y       0.382500
     17 C18          4.4450    -0.0660     1.2890 ca         1 H5Y       0.306900
     18 C19          5.2470     0.3140     0.2050 ca         1 H5Y      -0.127000
     19 C29         -5.2000     1.8850    -0.4950 c3         1 H5Y       0.145800
     20 C31         -7.6510     1.7860    -0.0750 c3         1 H5Y       0.153100
     21 C32         -6.7920     2.7710    -2.1510 c3         1 H5Y       0.153100
     22 N03         -3.3900     0.8750     0.9450 n          1 H5Y      -0.416800
     23 N15          1.1490     1.1350     0.2710 na         1 H5Y       0.145300
     24 N17          3.1190     0.1810     1.3510 nb         1 H5Y      -0.706000
     25 N25          0.6060     2.3820     0.5390 nd         1 H5Y      -0.489800
     26 N30         -6.5630     1.7730    -1.0830 n3         1 H5Y      -0.713600
     27 O13          1.3510    -5.5010    -0.2690 os         1 H5Y      -0.345100
     28 O22          6.6850     1.2010    -2.0840 o          1 H5Y      -0.703500
     29 O23          4.9140     2.0120    -2.9980 o          1 H5Y      -0.703500
     30 O27         -2.5940    -0.8270    -0.3740 o          1 H5Y      -0.597100
     31 H1           2.7700     1.7700    -1.6160 ha         1 H5Y       0.160000
     32 H2          -1.3720     2.8990     0.7290 h4         1 H5Y       0.029100
     33 H3          -5.4740     0.7310     1.3150 h1         1 H5Y       0.056200
     34 H4          -4.9240    -0.2190    -0.0590 h1         1 H5Y       0.056200
     35 H5          -3.5090     1.2170     4.3980 hc         1 H5Y       0.040033
     36 H6          -4.8470     0.6250     3.4010 hc         1 H5Y       0.040033
     37 H7          -3.3190    -0.2840     3.4680 hc         1 H5Y       0.040033
     38 H8          -3.6800     2.5210     2.2450 h1         1 H5Y       0.048200
     39 H9          -2.1380     1.6900     2.4810 h1         1 H5Y       0.048200
     40 H10          2.1650    -1.1810    -1.3580 ha         1 H5Y       0.120000
     41 H11          2.6380    -3.5950    -1.4830 ha         1 H5Y       0.116500
     42 H12         -0.6360    -4.3770     1.2300 ha         1 H5Y       0.116500
     43 H13         -1.0790    -1.9770     1.3960 ha         1 H5Y       0.120000
     44 H14          0.6670    -6.3840     1.5050 h1         1 H5Y       0.034367
     45 H15         -0.4460    -6.5100     0.1160 h1         1 H5Y       0.034367
     46 H16          1.0180    -7.5140     0.1810 h1         1 H5Y       0.034367
     47 H17          4.8790    -0.5860     2.1420 h4         1 H5Y       0.001100
     48 H18          6.3090     0.0840     0.2210 ha         1 H5Y       0.141000
     49 H19         -5.1060     2.8360     0.0470 h1         1 H5Y       0.040200
     50 H20         -4.4590     1.9100    -1.3060 h1         1 H5Y       0.040200
     51 H21         -8.6310     1.6990    -0.5630 h1         1 H5Y       0.027033
     52 H22         -7.5560     0.9450     0.6230 h1         1 H5Y       0.027033
     53 H23         -7.6380     2.7200     0.5030 h1         1 H5Y       0.027033
     54 H24         -6.7620     3.7920    -1.7460 h1         1 H5Y       0.027033
     55 H25         -6.0230     2.6880    -2.9310 h1         1 H5Y       0.027033
     56 H26         -7.7700     2.6160    -2.6250 h1         1 H5Y       0.027033
     57 C14          0.6090    -6.5250     0.4180 c3         1 H5Y       0.152900
     58 C04         -2.3480     0.1670     0.2940 c          1 H5Y       0.654700
@<TRIPOS>BOND
     1     1    13 ar  
     2     1    14 ar  
     3     1    27 1   
     4     2     3 1   
     5     2     4 ar  
     6     2    18 ar  
     7     3    28 1   
     8     3    29 1   
     9     4    16 ar  
    10     4    31 1   
    11     5     9 1   
    12     5    25 2   
    13     5    32 1   
    14     6    19 1   
    15     6    22 1   
    16     6    33 1   
    17     6    34 1   
    18     7     8 1   
    19     7    35 1   
    20     7    36 1   
    21     7    37 1   
    22     8    22 1   
    23     8    38 1   
    24     8    39 1   
    25     9    10 2   
    26     9    58 1   
    27    10    11 1   
    28    10    23 1   
    29    11    12 ar  
    30    11    15 ar  
    31    12    13 ar  
    32    12    40 1   
    33    13    41 1   
    34    14    15 ar  
    35    14    42 1   
    36    15    43 1   
    37    16    23 1   
    38    16    24 ar  
    39    17    18 ar  
    40    17    24 ar  
    41    17    47 1   
    42    18    48 1   
    43    19    26 1   
    44    19    49 1   
    45    19    50 1   
    46    20    26 1   
    47    20    51 1   
    48    20    52 1   
    49    20    53 1   
    50    21    26 1   
    51    21    54 1   
    52    21    55 1   
    53    21    56 1   
    54    22    58 1   
    55    23    25 1   
    56    27    57 1   
    57    30    58 2   
    58    44    57 1   
    59    45    57 1   
    60    46    57 1   
@<TRIPOS>SUBSTRUCTURE
     1 H5Y         1 TEMP              0 ****  ****    0 ROOT
