@<TRIPOS>MOLECULE
H5Z
   52    55     1     0     0
SMALL
abcg2


@<TRIPOS>ATOM
      1 C20         -4.0990     0.0060     0.3590 ca         1 H5Z      -0.147500
      2 C21         -4.3130     1.2800    -0.1510 ca         1 H5Z       0.185500
      3 C01          9.4540     0.8860     0.9620 c3         1 H5Z      -0.050800
      4 C02          8.0180     1.0590     0.5640 ca         1 H5Z      -0.056300
      5 C03          7.2900     2.1810     0.9510 ca         1 H5Z      -0.116500
      6 C04          5.9530     2.3240     0.6060 ca         1 H5Z      -0.073000
      7 C05          7.3670     0.0860    -0.1950 ca         1 H5Z      -0.116500
      8 C06          6.0410     0.2280    -0.5690 ca         1 H5Z      -0.073000
      9 C07          5.3220     1.3490    -0.1570 ca         1 H5Z      -0.124000
     10 C09          2.8740     0.0430    -0.1440 c6         1 H5Z       0.246300
     11 C11          2.5260    -2.1580    -0.8350 c6         1 H5Z       0.151300
     12 C12          2.9060    -3.1240    -1.9340 c3         1 H5Z       0.172600
     13 C14          1.0210    -2.1030    -0.5950 c6         1 H5Z       0.132300
     14 C16          0.7560    -1.0560     0.4970 c6         1 H5Z       0.064300
     15 C18         -1.5800    -0.2660    -0.0030 cc         1 H5Z      -0.158000
     16 C19         -2.7540    -0.4600     0.6830 cd         1 H5Z       0.225500
     17 C23         -5.5770     1.7450    -0.4580 ca         1 H5Z       0.093500
     18 C25         -6.6720     0.9280    -0.2490 ca         1 H5Z       0.145000
     19 C27         -6.4920    -0.3440     0.2590 ca         1 H5Z       0.093500
     20 C29         -5.2190    -0.7930     0.5550 ca         1 H5Z       0.185500
     21 C33          1.3950     0.2940     0.1780 c6         1 H5Z       0.149300
     22 F22         -3.2800     2.0940    -0.3470 f          1 H5Z      -0.136500
     23 F24         -5.7450     2.9700    -0.9420 f          1 H5Z      -0.134500
     24 F26         -7.8890     1.3610    -0.5430 f          1 H5Z      -0.131000
     25 F28         -7.5440    -1.1320     0.4510 f          1 H5Z      -0.134500
     26 F30         -5.0860    -2.0310     1.0140 f          1 H5Z      -0.136500
     27 N17         -0.6640    -0.9010     0.7410 na         1 H5Z       0.136800
     28 N31         -2.4770    -1.1950     1.7840 nd         1 H5Z      -0.326000
     29 N32         -1.2210    -1.4520     1.8100 nc         1 H5Z      -0.192800
     30 O10          3.0020    -0.8730    -1.1910 os         1 H5Z      -0.405000
     31 O15          0.3520    -1.7660    -1.7840 oh         1 H5Z      -0.704000
     32 O34          1.2260     1.1060     1.3020 oh         1 H5Z      -0.705000
     33 S08          3.6390     1.6050    -0.6440 ss         1 H5Z      -0.160000
     34 H012         9.5490     0.1680     1.7790 hc         1 H5Z       0.045367
     35 H011        10.0540     0.5100     0.1330 hc         1 H5Z       0.045367
     36 H013         9.8930     1.8250     1.2980 hc         1 H5Z       0.045367
     37 H041         5.4030     3.1960     0.9380 ha         1 H5Z       0.132000
     38 H051         7.9120    -0.7930    -0.5180 ha         1 H5Z       0.115500
     39 H061         5.5690    -0.5370    -1.1720 ha         1 H5Z       0.132000
     40 H091         3.3890    -0.3070     0.7640 h2         1 H5Z       0.072700
     41 H111         3.0010    -2.4880     0.1020 h1         1 H5Z       0.058700
     42 H122         2.4380    -4.0910    -1.7070 h1         1 H5Z       0.036700
     43 H121         2.4930    -2.7800    -2.8880 h1         1 H5Z       0.036700
     44 H141         0.6970    -3.0780    -0.2140 h1         1 H5Z       0.060700
     45 H161         1.1790    -1.4260     1.4360 h1         1 H5Z       0.109700
     46 H181        -1.3480     0.2460    -0.9200 h4         1 H5Z       0.184000
     47 H331         0.9220     0.7260    -0.7160 h1         1 H5Z       0.069700
     48 H131         4.5480    -3.7800    -2.7170 ho         1 H5Z       0.510000
     49 H151        -0.4160    -2.3340    -1.8850 ho         1 H5Z       0.513000
     50 H341         1.5500     1.9900     1.0970 ho         1 H5Z       0.529000
     51 O13          4.3100    -3.2190    -1.9730 oh         1 H5Z      -0.713000
     52 H031         7.7690     2.9540     1.5390 ha         1 H5Z       0.115500
@<TRIPOS>BOND
     1     1     2 ar  
     2     1    16 1   
     3     1    20 ar  
     4     2    17 ar  
     5     2    22 1   
     6     3     4 1   
     7     3    34 1   
     8     3    35 1   
     9     3    36 1   
    10     4     5 ar  
    11     4     7 ar  
    12     5     6 ar  
    13     5    52 1   
    14     6     9 ar  
    15     6    37 1   
    16     7     8 ar  
    17     7    38 1   
    18     8     9 ar  
    19     8    39 1   
    20     9    33 1   
    21    10    21 1   
    22    10    30 1   
    23    10    33 1   
    24    10    40 1   
    25    11    12 1   
    26    11    13 1   
    27    11    30 1   
    28    11    41 1   
    29    12    42 1   
    30    12    43 1   
    31    12    51 1   
    32    13    14 1   
    33    13    31 1   
    34    13    44 1   
    35    14    21 1   
    36    14    27 1   
    37    14    45 1   
    38    15    16 2   
    39    15    27 1   
    40    15    46 1   
    41    16    28 1   
    42    17    18 ar  
    43    17    23 1   
    44    18    19 ar  
    45    18    24 1   
    46    19    20 ar  
    47    19    25 1   
    48    20    26 1   
    49    21    32 1   
    50    21    47 1   
    51    27    29 1   
    52    28    29 2   
    53    31    49 1   
    54    32    50 1   
    55    48    51 1   
@<TRIPOS>SUBSTRUCTURE
     1 H5Z         1 TEMP              0 ****  ****    0 ROOT
