@<TRIPOS>MOLECULE
H5Z
   52    55     1     0     0
SMALL
No Charge or Current Charge


@<TRIPOS>ATOM
      1 C20         -4.3160    -0.1350     0.2480 ca         1 H5Z      -0.147500
      2 C21         -4.4500     0.9470    -0.6680 ca         1 H5Z       0.185500
      3 C01          9.7270     0.7800     0.3870 c3         1 H5Z      -0.050800
      4 C02          8.2200     0.9890     0.3830 ca         1 H5Z      -0.056300
      5 C03          7.6820     2.2840     0.2710 ca         1 H5Z      -0.116500
      6 C04          6.2900     2.4750     0.2710 ca         1 H5Z      -0.073000
      7 C05          7.3490    -0.1090     0.4990 ca         1 H5Z      -0.116500
      8 C06          5.9560     0.0800     0.4990 ca         1 H5Z      -0.073000
      9 C07          5.4150     1.3790     0.3820 ca         1 H5Z      -0.124000
     10 C09          2.8120     0.0610     0.4440 c6         1 H5Z       0.246300
     11 C11          2.5780    -2.0010    -0.8130 c6         1 H5Z       0.151300
     12 C12          3.1370    -2.7270    -2.0800 c3         1 H5Z       0.172600
     13 C14          1.0150    -1.9640    -0.7540 c6         1 H5Z       0.132300
     14 C16          0.6080    -1.2310     0.5620 c6         1 H5Z       0.064300
     15 C18         -1.7450    -0.3550     0.0940 cc         1 H5Z      -0.158000
     16 C19         -2.9770    -0.7110     0.5820 cd         1 H5Z       0.225500
     17 C23         -5.7110     1.4910    -0.9820 ca         1 H5Z       0.093500
     18 C25         -6.8700     0.9750    -0.3920 ca         1 H5Z       0.145000
     19 C27         -6.7720    -0.0870     0.5150 ca         1 H5Z       0.093500
     20 C29         -5.5160    -0.6380     0.8340 ca         1 H5Z       0.185500
     21 C33          1.2630     0.1850     0.6410 c6         1 H5Z       0.149300
     22 F22         -3.3710     1.4940    -1.2690 f          1 H5Z      -0.136500
     23 F24         -5.8040     2.5210    -1.8580 f          1 H5Z      -0.134500
     24 F26         -8.0810     1.5010    -0.6950 f          1 H5Z      -0.131000
     25 F28         -7.8950    -0.5870     1.0870 f          1 H5Z      -0.134500
     26 F30         -5.4960    -1.6640     1.7160 f          1 H5Z      -0.136500
     27 N17         -0.8660    -1.1960     0.7350 na         1 H5Z       0.136800
     28 N31         -2.7920    -1.7410     1.4840 nd         1 H5Z      -0.326000
     29 N32         -1.5250    -2.0370     1.5760 nc         1 H5Z      -0.192800
     30 O10          3.1050    -0.6510    -0.7800 os         1 H5Z      -0.405000
     31 O15          0.4520    -1.2880    -1.9030 oh         1 H5Z      -0.704000
     32 O34          0.9450     0.8170     1.9030 oh         1 H5Z      -0.705000
     33 S08          3.6450     1.7170     0.3810 ss         1 H5Z      -0.160000
     34 H012        10.1230     0.8170     1.4080 hc         1 H5Z       0.045367
     35 H011         9.9970    -0.1920    -0.0420 hc         1 H5Z       0.045367
     36 H013        10.2390     1.5520    -0.2000 hc         1 H5Z       0.045367
     37 H041         5.8870     3.4830     0.1830 ha         1 H5Z       0.132000
     38 H051         7.7520    -1.1160     0.5890 ha         1 H5Z       0.115500
     39 H061         5.3190    -0.7940     0.5890 ha         1 H5Z       0.132000
     40 H091         3.2400    -0.4760     1.3020 h2         1 H5Z       0.072700
     41 H111         2.9550    -2.5450     0.0660 h1         1 H5Z       0.058700
     42 H122         2.7010    -3.7350    -2.1160 h1         1 H5Z       0.036700
     43 H121         2.7890    -2.1880    -2.9710 h1         1 H5Z       0.036700
     44 H141         0.6400    -2.9980    -0.7010 h1         1 H5Z       0.060700
     45 H161         1.0080    -1.8180     1.4010 h1         1 H5Z       0.109700
     46 H181        -1.4200     0.3800    -0.6270 h4         1 H5Z       0.184000
     47 H331         0.8720     0.7930    -0.1890 h1         1 H5Z       0.069700
     48 H131         4.8350    -3.2000    -2.9610 ho         1 H5Z       0.510000
     49 H151         0.3420    -1.9540    -2.6210 ho         1 H5Z       0.513000
     50 H341         1.2330     1.7590     1.8450 ho         1 H5Z       0.529000
     51 O13          4.5760    -2.8140    -2.0910 oh         1 H5Z      -0.713000
     52 H031         8.3420     3.1440     0.1850 ha         1 H5Z       0.115500
@<TRIPOS>BOND
     1     1     2 ar  
     2     1    16 1   
     3     1    20 ar  
     4     2    17 ar  
     5     2    22 1   
     6     3     4 1   
     7     3    34 1   
     8     3    35 1   
     9     3    36 1   
    10     4     5 ar  
    11     4     7 ar  
    12     5     6 ar  
    13     5    52 1   
    14     6     9 ar  
    15     6    37 1   
    16     7     8 ar  
    17     7    38 1   
    18     8     9 ar  
    19     8    39 1   
    20     9    33 1   
    21    10    21 1   
    22    10    30 1   
    23    10    33 1   
    24    10    40 1   
    25    11    12 1   
    26    11    13 1   
    27    11    30 1   
    28    11    41 1   
    29    12    42 1   
    30    12    43 1   
    31    12    51 1   
    32    13    14 1   
    33    13    31 1   
    34    13    44 1   
    35    14    21 1   
    36    14    27 1   
    37    14    45 1   
    38    15    16 2   
    39    15    27 1   
    40    15    46 1   
    41    16    28 1   
    42    17    18 ar  
    43    17    23 1   
    44    18    19 ar  
    45    18    24 1   
    46    19    20 ar  
    47    19    25 1   
    48    20    26 1   
    49    21    32 1   
    50    21    47 1   
    51    27    29 1   
    52    28    29 2   
    53    31    49 1   
    54    32    50 1   
    55    48    51 1   
@<TRIPOS>SUBSTRUCTURE
     1 H5Z         1 TEMP              0 ****  ****    0 ROOT
