@<TRIPOS>MOLECULE
H60
   61    62     1     0     0
SMALL
No Charge or Current Charge


@<TRIPOS>ATOM
      1 C20        -11.3430    11.1880    70.1810 c          1 H60       0.606300
      2 O29        -12.5560    11.1250    70.0510 o          1 H60      -0.614100
      3 C21        -10.5210    10.0540    70.6800 ce         1 H60      -0.296200
      4 C22        -11.0250     8.8380    71.0450 cf         1 H60      -0.072200
      5 C23        -10.3180     7.6430    71.5520 ca         1 H60      -0.076800
      6 C24         -8.9170     7.6260    71.7310 ca         1 H60      -0.086000
      7 C25         -8.2740     6.4740    72.2150 ca         1 H60      -0.115000
      8 C26         -9.0200     5.3260    72.5260 ca         1 H60      -0.095000
      9 C27        -10.4130     5.3320    72.3520 ca         1 H60      -0.115000
     10 C28        -11.0580     6.4840    71.8680 ca         1 H60      -0.086000
     11 N19        -10.6180    12.3140    69.8730 ns         1 H60      -0.486900
     12 C14        -11.1860    13.5850    69.3640 c3         1 H60       0.038700
     13 C13        -10.2600    14.1810    68.2630 c          1 H60       0.592100
     14 O30         -9.1110    13.7990    68.0760 o          1 H60      -0.595100
     15 C15        -11.4190    14.6020    70.5150 c3         1 H60      -0.087400
     16 C16        -12.4280    14.1330    71.5930 c3         1 H60      -0.073400
     17 C17        -12.7670    15.2050    72.6560 c3         1 H60      -0.075400
     18 C18        -11.5750    15.6190    73.5450 c3         1 H60      -0.091100
     19 C07         -8.5900    13.7960    63.1700 c6         1 H60      -0.094400
     20 C03        -10.1770    15.8620    66.3530 c3         1 H60      -0.016300
     21 C06         -9.1660    13.3730    64.5360 c6         1 H60      -0.074400
     22 C10        -11.5050    13.5370    63.4390 c          1 H60       0.570000
     23 C04        -10.7750    15.3730    65.0020 c3         1 H60      -0.075400
     24 C02        -10.2730    17.3990    66.5400 c          1 H60       0.561900
     25 C05        -10.6430    13.8390    64.6910 c6         1 H60      -0.141700
     26 C08         -9.4180    13.1940    62.0150 c6         1 H60       0.116000
     27 N12        -10.8290    15.1850    67.5010 ns         1 H60      -0.500900
     28 N09        -10.8690    13.2160    62.2600 ns         1 H60      -0.508900
     29 H6          -9.4530    10.2380    70.7480 ha         1 H60       0.178000
     30 H8         -12.1070     8.7050    70.9580 ha         1 H60       0.196000
     31 H10         -8.3160     8.5000    71.4980 ha         1 H60       0.114000
     32 H30         -7.1940     6.4710    72.3500 ha         1 H60       0.115000
     33 H11         -8.5210     4.4350    72.9010 ha         1 H60       0.114000
     34 H31        -10.9950     4.4450    72.5920 ha         1 H60       0.115000
     35 H12        -12.1380     6.4720    71.7390 ha         1 H60       0.114000
     36 H33         -9.6120    12.2520    69.9760 hn         1 H60       0.324500
     37 H24        -12.1480    13.3750    68.8790 h1         1 H60       0.076700
     38 H2         -10.4540    14.8220    70.9880 hc         1 H60       0.055700
     39 H3         -11.7820    15.5460    70.0900 hc         1 H60       0.055700
     40 H25        -13.3590    13.8320    71.0980 hc         1 H60       0.043200
     41 H26        -12.0400    13.2430    72.1020 hc         1 H60       0.043200
     42 H4         -13.1750    16.0950    72.1610 hc         1 H60       0.040700
     43 H5         -13.5630    14.8150    73.3020 hc         1 H60       0.040700
     44 H27        -11.9070    16.3150    74.3250 hc         1 H60       0.033367
     45 H28        -11.1330    14.7430    74.0350 hc         1 H60       0.033367
     46 H29        -10.7970    16.1190    72.9570 hc         1 H60       0.033367
     47 H20         -7.5440    13.4740    63.0810 hc         1 H60       0.051200
     48 H21         -8.5810    14.8910    63.0860 hc         1 H60       0.051200
     49 H14         -9.1020    15.6430    66.3690 h1         1 H60       0.100700
     50 H18         -9.1250    12.2770    64.6160 hc         1 H60       0.057200
     51 H19         -8.5360    13.7540    65.3490 hc         1 H60       0.057200
     52 H15        -10.3230    15.9550    64.1890 hc         1 H60       0.066200
     53 H16        -11.8380    15.6470    64.9950 hc         1 H60       0.066200
     54 H13         -9.5860    17.8210    67.3070 h4         1 H60      -0.005800
     55 H17        -11.1260    13.3220    65.5300 hc         1 H60       0.098700
     56 H22         -9.1240    12.1440    61.8740 h1         1 H60       0.037700
     57 H23         -9.2020    13.7280    61.0790 h1         1 H60       0.037700
     58 H1         -11.7880    15.4320    67.7250 hn         1 H60       0.320500
     59 H32        -11.4820    12.9960    61.4850 hn         1 H60       0.312500
     60 O01        -11.0330    18.1280    65.9090 o          1 H60      -0.503100
     61 O11        -12.7240    13.5100    63.4940 o          1 H60      -0.580000
@<TRIPOS>BOND
     1     1     2 2   
     2     1     3 1   
     3     1    11 1   
     4     3     4 2   
     5     3    29 1   
     6     4     5 1   
     7     4    30 1   
     8     5     6 ar  
     9     5    10 ar  
    10     6     7 ar  
    11     6    31 1   
    12     7     8 ar  
    13     7    32 1   
    14     8     9 ar  
    15     8    33 1   
    16     9    10 ar  
    17     9    34 1   
    18    10    35 1   
    19    11    12 1   
    20    11    36 1   
    21    12    13 1   
    22    12    15 1   
    23    12    37 1   
    24    13    14 2   
    25    13    27 1   
    26    15    16 1   
    27    15    38 1   
    28    15    39 1   
    29    16    17 1   
    30    16    40 1   
    31    16    41 1   
    32    17    18 1   
    33    17    42 1   
    34    17    43 1   
    35    18    44 1   
    36    18    45 1   
    37    18    46 1   
    38    19    21 1   
    39    19    26 1   
    40    19    47 1   
    41    19    48 1   
    42    20    23 1   
    43    20    24 1   
    44    20    27 1   
    45    20    49 1   
    46    21    25 1   
    47    21    50 1   
    48    21    51 1   
    49    22    25 1   
    50    22    28 1   
    51    22    61 2   
    52    23    25 1   
    53    23    52 1   
    54    23    53 1   
    55    24    54 1   
    56    24    60 2   
    57    25    55 1   
    58    26    28 1   
    59    26    56 1   
    60    26    57 1   
    61    27    58 1   
    62    28    59 1   
@<TRIPOS>SUBSTRUCTURE
     1 H60         1 TEMP              0 ****  ****    0 ROOT
