@<TRIPOS>MOLECULE
H60
   61    62     1     0     0
SMALL
abcg2


@<TRIPOS>ATOM
      1 C20        -10.9980    11.6140    69.6920 c          1 H60       0.606300
      2 O29        -11.4200    11.5940    68.5410 o          1 H60      -0.614100
      3 C21        -10.5000    10.4120    70.3940 ce         1 H60      -0.296200
      4 C22        -10.4180     9.2390    69.7580 cf         1 H60      -0.072200
      5 C23         -9.9460     7.9700    70.3020 ca         1 H60      -0.076800
      6 C24         -9.5800     7.7970    71.6410 ca         1 H60      -0.086000
      7 C25         -9.1380     6.5680    72.0970 ca         1 H60      -0.115000
      8 C26         -9.0510     5.4850    71.2280 ca         1 H60      -0.095000
      9 C27         -9.4130     5.6400    69.8980 ca         1 H60      -0.115000
     10 C28         -9.8590     6.8720    69.4420 ca         1 H60      -0.086000
     11 N19        -10.9680    12.7490    70.4160 ns         1 H60      -0.486900
     12 C14        -11.3450    14.0090    69.8350 c3         1 H60       0.038700
     13 C13        -10.3820    14.3760    68.7030 c          1 H60       0.592100
     14 O30         -9.1990    14.0910    68.7430 o          1 H60      -0.595100
     15 C15        -11.3470    15.1160    70.8900 c3         1 H60      -0.087400
     16 C16        -12.3890    14.8990    71.9840 c3         1 H60      -0.073400
     17 C17        -12.5620    16.1090    72.8980 c3         1 H60      -0.075400
     18 C18        -11.3150    16.4700    73.6940 c3         1 H60      -0.091100
     19 C07         -8.8860    12.7730    63.7660 c6         1 H60      -0.094400
     20 C03        -10.2540    15.4830    66.5040 c3         1 H60      -0.016300
     21 C06         -9.4180    12.7240    65.1880 c6         1 H60      -0.074400
     22 C10        -11.7380    12.8210    64.1550 c          1 H60       0.570000
     23 C04        -10.8430    14.8570    65.2450 c3         1 H60      -0.075400
     24 C02        -10.2200    16.9970    66.4560 c          1 H60       0.561900
     25 C05        -10.8230    13.3210    65.2630 c6         1 H60      -0.141700
     26 C08         -9.7710    11.9280    62.8730 c6         1 H60       0.116000
     27 N12        -10.9510    15.0760    67.7000 ns         1 H60      -0.500900
     28 N09        -11.1740    12.2310    63.0890 ns         1 H60      -0.508900
     29 H6         -10.2010    10.5230    71.4310 ha         1 H60       0.178000
     30 H8         -10.7250     9.2090    68.7160 ha         1 H60       0.196000
     31 H10         -9.6420     8.6250    72.3360 ha         1 H60       0.114000
     32 H30         -8.8610     6.4510    73.1370 ha         1 H60       0.115000
     33 H11         -8.7040     4.5260    71.5900 ha         1 H60       0.114000
     34 H31         -9.3500     4.8030    69.2150 ha         1 H60       0.115000
     35 H12        -10.1430     6.9890    68.4020 ha         1 H60       0.114000
     36 H33        -10.5120    12.7500    71.3160 hn         1 H60       0.324500
     37 H24        -12.3580    13.9220    69.4270 h1         1 H60       0.076700
     38 H2         -10.3440    15.2060    71.3160 hc         1 H60       0.055700
     39 H3         -11.5540    16.0630    70.3840 hc         1 H60       0.055700
     40 H25        -13.3500    14.6680    71.5150 hc         1 H60       0.043200
     41 H26        -12.1270    14.0270    72.5910 hc         1 H60       0.043200
     42 H4         -12.8800    16.9700    72.3020 hc         1 H60       0.040700
     43 H5         -13.3820    15.9040    73.5920 hc         1 H60       0.040700
     44 H27        -11.5170    17.2830    74.3930 hc         1 H60       0.033367
     45 H28        -10.9610    15.6170    74.2760 hc         1 H60       0.033367
     46 H29        -10.4950    16.7940    73.0520 hc         1 H60       0.033367
     47 H20         -7.8660    12.3910    63.7170 hc         1 H60       0.051200
     48 H21         -8.8570    13.8030    63.4020 hc         1 H60       0.051200
     49 H14         -9.2080    15.1830    66.6320 h1         1 H60       0.100700
     50 H18         -9.4520    11.6840    65.5250 hc         1 H60       0.057200
     51 H19         -8.7450    13.2380    65.8760 hc         1 H60       0.057200
     52 H15        -10.2970    15.2320    64.3770 hc         1 H60       0.066200
     53 H16        -11.8750    15.2010    65.1350 hc         1 H60       0.066200
     54 H13        -10.0180    17.4660    67.4360 h4         1 H60      -0.005800
     55 H17        -11.2960    12.9890    66.1920 hc         1 H60       0.098700
     56 H22         -9.5880    10.8670    63.0700 h1         1 H60       0.037700
     57 H23         -9.5410    12.1030    61.8210 h1         1 H60       0.037700
     58 H1         -11.9500    15.2160    67.7170 hn         1 H60       0.320500
     59 H32        -11.8210    11.8910    62.3920 hn         1 H60       0.312500
     60 O01        -10.3840    17.6570    65.4640 o          1 H60      -0.503100
     61 O11        -12.9520    12.9780    64.2330 o          1 H60      -0.580000
@<TRIPOS>BOND
     1     1     2 2   
     2     1     3 1   
     3     1    11 1   
     4     3     4 2   
     5     3    29 1   
     6     4     5 1   
     7     4    30 1   
     8     5     6 ar  
     9     5    10 ar  
    10     6     7 ar  
    11     6    31 1   
    12     7     8 ar  
    13     7    32 1   
    14     8     9 ar  
    15     8    33 1   
    16     9    10 ar  
    17     9    34 1   
    18    10    35 1   
    19    11    12 1   
    20    11    36 1   
    21    12    13 1   
    22    12    15 1   
    23    12    37 1   
    24    13    14 2   
    25    13    27 1   
    26    15    16 1   
    27    15    38 1   
    28    15    39 1   
    29    16    17 1   
    30    16    40 1   
    31    16    41 1   
    32    17    18 1   
    33    17    42 1   
    34    17    43 1   
    35    18    44 1   
    36    18    45 1   
    37    18    46 1   
    38    19    21 1   
    39    19    26 1   
    40    19    47 1   
    41    19    48 1   
    42    20    23 1   
    43    20    24 1   
    44    20    27 1   
    45    20    49 1   
    46    21    25 1   
    47    21    50 1   
    48    21    51 1   
    49    22    25 1   
    50    22    28 1   
    51    22    61 2   
    52    23    25 1   
    53    23    52 1   
    54    23    53 1   
    55    24    54 1   
    56    24    60 2   
    57    25    55 1   
    58    26    28 1   
    59    26    56 1   
    60    26    57 1   
    61    27    58 1   
    62    28    59 1   
@<TRIPOS>SUBSTRUCTURE
     1 H60         1 TEMP              0 ****  ****    0 ROOT
