@<TRIPOS>MOLECULE
H61
   50    54     1     0     0
SMALL
No Charge or Current Charge


@<TRIPOS>ATOM
      1 C02          4.4950     0.2540     0.3010 c          1 H61       0.718600
      2 C04          3.8150     1.5820     0.0060 ca         1 H61      -0.083600
      3 C05          2.4100     1.7590    -0.0280 ca         1 H61      -0.186000
      4 C06          1.8670     3.0030    -0.2990 ca         1 H61       0.323800
      5 C07          0.4300     3.0160    -0.2820 cc         1 H61      -0.229800
      6 C08         -0.0960     1.7620     0.0220 cd         1 H61      -0.188000
      7 C09         -1.5330     1.5530     0.0800 cd         1 H61       0.531100
      8 C11         -3.6310     1.9400    -0.0480 ca         1 H61       0.076400
      9 C12         -4.8960     2.5230    -0.2210 ca         1 H61      -0.058000
     10 C13         -6.0410     1.7150    -0.0620 ca         1 H61      -0.144000
     11 C14         -5.9070     0.3460     0.2620 ca         1 H61      -0.115000
     12 C15         -4.6270    -0.2200     0.4320 ca         1 H61      -0.110000
     13 C16         -3.5090     0.6170     0.2730 ca         1 H61      -0.088200
     14 C19         -1.3150    -1.9070    -0.4150 c3         1 H61       0.145800
     15 C21         -0.7560    -4.1570    -1.2480 c6         1 H61       0.158800
     16 C22         -0.3350    -5.5960    -0.8620 c6         1 H61      -0.071900
     17 C23          1.0310    -5.5990    -0.1410 c6         1 H61      -0.076400
     18 C24          0.9980    -4.6280     1.0600 c6         1 H61      -0.071900
     19 C25          0.5370    -3.2150     0.6230 c6         1 H61       0.158800
     20 C28          3.9380     3.9690    -0.5170 ca         1 H61       0.307900
     21 C29          4.5820     2.7450    -0.2470 ca         1 H61      -0.136000
     22 N10         -2.4010     2.5570    -0.1740 nc         1 H61      -0.587100
     23 N17         -2.1730     0.3230     0.3820 na         1 H61      -0.174600
     24 N20         -0.7920    -3.2530    -0.0620 n3         1 H61      -0.723600
     25 N27          2.5920     4.1100    -0.5450 nb         1 H61      -0.666000
     26 O01          5.5760     0.2810     0.8750 o          1 H61      -0.702500
     27 O03          3.9700    -0.7800    -0.0850 o          1 H61      -0.702500
     28 S26          1.1670     0.5230     0.2860 ss         1 H61       0.198400
     29 H1          -0.1640     3.9030    -0.4810 ha         1 H61       0.210000
     30 H2          -4.9890     3.5760    -0.4770 ha         1 H61       0.121000
     31 H3          -7.0310     2.1470    -0.1930 ha         1 H61       0.101000
     32 H4          -6.7930    -0.2730     0.3790 ha         1 H61       0.100000
     33 H5          -4.5220    -1.2740     0.6770 ha         1 H61       0.116000
     34 H6          -2.4020    -1.5020     1.4080 h1         1 H61       0.071700
     35 H7          -0.7790    -0.8540     1.4350 h1         1 H61       0.071700
     36 H8          -2.2400    -2.0200    -0.9970 h1         1 H61       0.044700
     37 H9          -0.5980    -1.3870    -1.0640 h1         1 H61       0.044700
     38 H12         -1.1010    -6.0390    -0.2100 hc         1 H61       0.039700
     39 H13         -0.2870    -6.2240    -1.7620 hc         1 H61       0.039700
     40 H14          1.2790    -6.6140     0.1980 hc         1 H61       0.038700
     41 H15          1.8220    -5.2970    -0.8420 hc         1 H61       0.038700
     42 H16          0.3150    -5.0130     1.8300 hc         1 H61       0.039700
     43 H17          1.9920    -4.5690     1.5220 hc         1 H61       0.039700
     44 H18          0.4990    -2.5820     1.5210 h1         1 H61       0.042950
     45 H19          1.2970    -2.7820    -0.0440 h1         1 H61       0.042950
     46 H20          4.5210     4.8680    -0.7150 h4         1 H61      -0.003900
     47 H21          5.6670     2.7050    -0.2400 ha         1 H61       0.134000
     48 C18         -1.6500    -0.9970     0.7910 c3         1 H61       0.073600
     49 H10         -0.0530    -3.7690    -2.0010 h1         1 H61       0.042950
     50 H11         -1.7460    -4.2000    -1.7250 h1         1 H61       0.042950
@<TRIPOS>BOND
     1     1     2 1   
     2     1    26 1   
     3     1    27 1   
     4     2     3 ar  
     5     2    21 ar  
     6     3     4 ar  
     7     3    28 1   
     8     4     5 1   
     9     4    25 ar  
    10     5     6 2   
    11     5    29 1   
    12     6     7 1   
    13     6    28 1   
    14     7    22 2   
    15     7    23 1   
    16     8     9 ar  
    17     8    13 ar  
    18     8    22 1   
    19     9    10 ar  
    20     9    30 1   
    21    10    11 ar  
    22    10    31 1   
    23    11    12 ar  
    24    11    32 1   
    25    12    13 ar  
    26    12    33 1   
    27    13    23 1   
    28    14    24 1   
    29    14    36 1   
    30    14    37 1   
    31    14    48 1   
    32    15    16 1   
    33    15    24 1   
    34    15    49 1   
    35    15    50 1   
    36    16    17 1   
    37    16    38 1   
    38    16    39 1   
    39    17    18 1   
    40    17    40 1   
    41    17    41 1   
    42    18    19 1   
    43    18    42 1   
    44    18    43 1   
    45    19    24 1   
    46    19    44 1   
    47    19    45 1   
    48    20    21 ar  
    49    20    25 ar  
    50    20    46 1   
    51    21    47 1   
    52    23    48 1   
    53    34    48 1   
    54    35    48 1   
@<TRIPOS>SUBSTRUCTURE
     1 H61         1 TEMP              0 ****  ****    0 ROOT
