@<TRIPOS>MOLECULE
H61
   50    54     1     0     0
SMALL
bcc


@<TRIPOS>ATOM
      1 C02          4.3240     0.1960    -0.6030 c          1 H61       0.929200
      2 C04          3.7670     1.5660    -0.2570 ca         1 H61      -0.083600
      3 C05          2.3950     1.7620    -0.1390 ca         1 H61      -0.124400
      4 C06          1.8790     3.0320     0.1770 ca         1 H61       0.389100
      5 C07          0.4530     3.0280     0.2530 cc         1 H61      -0.179800
      6 C08         -0.0690     1.7970     0.0110 cd         1 H61      -0.188000
      7 C09         -1.4980     1.5280    -0.0410 cd         1 H61       0.531100
      8 C11         -3.5880     1.8530    -0.3040 ca         1 H61       0.076400
      9 C12         -4.8600     2.3690    -0.5580 ca         1 H61      -0.076000
     10 C13         -5.9440     1.5300    -0.3830 ca         1 H61      -0.162000
     11 C14         -5.7790     0.1990     0.0360 ca         1 H61      -0.133000
     12 C15         -4.5260    -0.3310     0.2880 ca         1 H61      -0.128000
     13 C16         -3.4410     0.5200     0.1070 ca         1 H61      -0.088200
     14 C19         -1.2960    -1.8930    -0.3910 c3         1 H61       0.145800
     15 C21         -0.9430    -4.1780    -0.9650 c6         1 H61       0.158800
     16 C22         -0.4970    -5.5500    -0.4850 c6         1 H61      -0.071900
     17 C23          0.9470    -5.5110    -0.0020 c6         1 H61      -0.076400
     18 C24          1.1060    -4.4100     1.0370 c6         1 H61      -0.071900
     19 C25          0.6040    -3.0780     0.5030 c6         1 H61       0.158800
     20 C28          3.9630     3.9090     0.2690 ca         1 H61       0.373200
     21 C29          4.5560     2.6810    -0.0440 ca         1 H61      -0.219300
     22 N10         -2.3600     2.4500    -0.3890 nc         1 H61      -0.587100
     23 N17         -2.0920     0.3360     0.2760 na         1 H61      -0.145300
     24 N20         -0.7850    -3.1660     0.0700 n3         1 H61      -0.723600
     25 N27          2.6610     4.0970     0.3800 nb         1 H61      -0.666000
     26 O01          5.5560     0.0860    -0.6850 o          1 H61      -0.807800
     27 O03          3.4570    -0.6850    -0.7700 o          1 H61      -0.807800
     28 S26          1.1500     0.5890    -0.3390 ss         1 H61       0.071500
     29 H1          -0.1400     3.9020     0.4820 ha         1 H61       0.160000
     30 H2          -4.9890     3.3950    -0.8780 ha         1 H61       0.139000
     31 H3          -6.9420     1.9010    -0.5710 ha         1 H61       0.119000
     32 H4          -6.6530    -0.4260     0.1640 ha         1 H61       0.118000
     33 H5          -4.4100    -1.3590     0.6090 ha         1 H61       0.134000
     34 H6          -2.1650    -1.3290     1.5000 h1         1 H61       0.071700
     35 H7          -0.5700    -0.6590     1.2630 h1         1 H61       0.071700
     36 H8          -2.2680    -2.0670    -0.8630 h1         1 H61       0.044700
     37 H9          -0.6520    -1.4410    -1.1640 h1         1 H61       0.044700
     38 H12         -1.1480    -5.8750     0.3320 hc         1 H61       0.039700
     39 H13         -0.6200    -6.2700    -1.2960 hc         1 H61       0.039700
     40 H14          1.2420    -6.4790     0.4100 hc         1 H61       0.038700
     41 H15          1.6120    -5.3150    -0.8490 hc         1 H61       0.038700
     42 H16          0.5420    -4.6730     1.9380 hc         1 H61       0.039700
     43 H17          2.1510    -4.3030     1.3360 hc         1 H61       0.039700
     44 H18          0.6930    -2.3280     1.2920 h1         1 H61       0.042950
     45 H19          1.2550    -2.7390    -0.3210 h1         1 H61       0.042950
     46 H20          4.5910     4.7770     0.4350 h4         1 H61      -0.003900
     47 H21          5.6320     2.6080    -0.1170 ha         1 H61       0.152000
     48 C18         -1.4990    -0.9000     0.7510 c3         1 H61       0.044300
     49 H10         -0.3740    -3.9090    -1.8730 h1         1 H61       0.042950
     50 H11         -1.9960    -4.2120    -1.2560 h1         1 H61       0.042950
@<TRIPOS>BOND
     1     1     2 1   
     2     1    26 1   
     3     1    27 1   
     4     2     3 ar  
     5     2    21 ar  
     6     3     4 ar  
     7     3    28 1   
     8     4     5 1   
     9     4    25 ar  
    10     5     6 2   
    11     5    29 1   
    12     6     7 1   
    13     6    28 1   
    14     7    22 2   
    15     7    23 1   
    16     8     9 ar  
    17     8    13 ar  
    18     8    22 1   
    19     9    10 ar  
    20     9    30 1   
    21    10    11 ar  
    22    10    31 1   
    23    11    12 ar  
    24    11    32 1   
    25    12    13 ar  
    26    12    33 1   
    27    13    23 1   
    28    14    24 1   
    29    14    36 1   
    30    14    37 1   
    31    14    48 1   
    32    15    16 1   
    33    15    24 1   
    34    15    49 1   
    35    15    50 1   
    36    16    17 1   
    37    16    38 1   
    38    16    39 1   
    39    17    18 1   
    40    17    40 1   
    41    17    41 1   
    42    18    19 1   
    43    18    42 1   
    44    18    43 1   
    45    19    24 1   
    46    19    44 1   
    47    19    45 1   
    48    20    21 ar  
    49    20    25 ar  
    50    20    46 1   
    51    21    47 1   
    52    23    48 1   
    53    34    48 1   
    54    35    48 1   
@<TRIPOS>SUBSTRUCTURE
     1 H61         1 TEMP              0 ****  ****    0 ROOT
