@<TRIPOS>MOLECULE
H62
   25    25     1     0     0
SMALL
No Charge or Current Charge


@<TRIPOS>ATOM
      1 O5           2.6540     0.0930    -1.0350 o          1 H62      -0.738000
      2 C7           2.2460     0.3470     0.0910 c          1 H62       0.736000
      3 O4           2.9890     0.6830     1.0040 o          1 H62      -0.738000
      4 C1           0.7560     0.1350     0.4250 c6         1 H62      -0.181700
      5 C6           0.2090    -1.2650     0.0270 c6         1 H62       0.192500
      6 N1           0.9870    -2.3440     0.6680 n8         1 H62      -1.007200
      7 C5          -1.2890    -1.4240     0.4150 c6         1 H62      -0.108400
      8 C4          -2.1730    -0.2750    -0.1410 c6         1 H62       0.150300
      9 O2          -2.2360    -0.3700    -1.5750 oh         1 H62      -0.711000
     10 C3          -1.6200     1.1250     0.3080 c6         1 H62       0.131300
     11 O1          -1.7430     1.2960     1.7340 oh         1 H62      -0.643000
     12 C2          -0.1300     1.2810    -0.1550 c6         1 H62       0.200300
     13 O3          -0.0960     1.2870    -1.5880 oh         1 H62      -0.682000
     14 H2           0.6840     0.2380     1.5150 hc         1 H62       0.060700
     15 H3           0.3070    -1.3950    -1.0630 h1         1 H62       0.041700
     16 H4           0.6080    -3.2450     0.3580 hn         1 H62       0.393500
     17 H5           1.9340    -2.3340     0.2730 hn         1 H62       0.393500
     18 H7          -1.6700    -2.3890     0.0540 hc         1 H62       0.031700
     19 H8          -1.3860    -1.4520     1.5100 hc         1 H62       0.031700
     20 H9          -3.1880    -0.3910     0.2640 h1         1 H62      -0.007300
     21 H10         -2.8620    -1.1040    -1.7800 ho         1 H62       0.490000
     22 H11         -2.2170     1.9040    -0.1890 h1         1 H62       0.015700
     23 H12         -2.7010     1.2510     1.9440 ho         1 H62       0.419000
     24 H13          0.2520     2.2410     0.2260 h1         1 H62       0.059700
     25 H14         -0.8380     0.6710    -1.8340 ho         1 H62       0.469000
@<TRIPOS>BOND
     1     1     2 1   
     2     2     3 1   
     3     2     4 1   
     4     4     5 1   
     5     4    12 1   
     6     4    14 1   
     7     5     6 1   
     8     5     7 1   
     9     5    15 1   
    10     6    16 1   
    11     6    17 1   
    12     7     8 1   
    13     7    18 1   
    14     7    19 1   
    15     8     9 1   
    16     8    10 1   
    17     8    20 1   
    18     9    21 1   
    19    10    11 1   
    20    10    12 1   
    21    10    22 1   
    22    11    23 1   
    23    12    13 1   
    24    12    24 1   
    25    13    25 1   
@<TRIPOS>SUBSTRUCTURE
     1 H62         1 TEMP              0 ****  ****    0 ROOT
