@<TRIPOS>MOLECULE
H62
   25    25     1     0     0
SMALL
bcc


@<TRIPOS>ATOM
      1 O5           2.7730    -0.4970    -0.7120 o          1 H62      -0.843300
      2 C7           2.1830     0.3310     0.0140 c          1 H62       0.946600
      3 O4           2.6730     1.3870     0.4630 o          1 H62      -0.843300
      4 C1           0.7150     0.0480     0.4130 c6         1 H62      -0.181700
      5 C6           0.1770    -1.3180    -0.0090 c6         1 H62       0.192500
      6 N1           0.9560    -2.3750     0.6300 n8         1 H62      -0.896800
      7 C5          -1.2760    -1.4660     0.4320 c6         1 H62      -0.108400
      8 C4          -2.1900    -0.3670    -0.0900 c6         1 H62       0.127100
      9 O2          -2.3660    -0.4240    -1.4910 oh         1 H62      -0.588800
     10 C3          -1.6370     1.0160     0.2590 c6         1 H62       0.108100
     11 O1          -1.7330     1.2450     1.6490 oh         1 H62      -0.580800
     12 C2          -0.1580     1.1910    -0.1030 c6         1 H62       0.177100
     13 O3           0.0300     1.2790    -1.4980 oh         1 H62      -0.559800
     14 H2           0.6690     0.0860     1.5090 hc         1 H62       0.060700
     15 H3           0.2160    -1.3850    -1.1050 h1         1 H62       0.041700
     16 H4           0.6050    -3.2750     0.3210 hn         1 H62       0.338300
     17 H5           1.9020    -2.3110     0.2740 hn         1 H62       0.338300
     18 H7          -1.6690    -2.4410     0.1190 hc         1 H62       0.031700
     19 H8          -1.3170    -1.4640     1.5260 hc         1 H62       0.031700
     20 H9          -3.1680    -0.4690     0.4090 h1         1 H62      -0.007300
     21 H10         -2.6790    -1.3060    -1.7110 ho         1 H62       0.391000
     22 H11         -2.2200     1.7720    -0.2920 h1         1 H62       0.015700
     23 H12         -2.6600     1.2030     1.9020 ho         1 H62       0.380000
     24 H13          0.1790     2.1170     0.3850 h1         1 H62       0.059700
     25 H14         -0.5280     1.9860    -1.8380 ho         1 H62       0.370000
@<TRIPOS>BOND
     1     1     2 1   
     2     2     3 1   
     3     2     4 1   
     4     4     5 1   
     5     4    12 1   
     6     4    14 1   
     7     5     6 1   
     8     5     7 1   
     9     5    15 1   
    10     6    16 1   
    11     6    17 1   
    12     7     8 1   
    13     7    18 1   
    14     7    19 1   
    15     8     9 1   
    16     8    10 1   
    17     8    20 1   
    18     9    21 1   
    19    10    11 1   
    20    10    12 1   
    21    10    22 1   
    22    11    23 1   
    23    12    13 1   
    24    12    24 1   
    25    13    25 1   
@<TRIPOS>SUBSTRUCTURE
     1 H62         1 TEMP              0 ****  ****    0 ROOT
