@<TRIPOS>MOLECULE
H63
   58    59     1     0     0
SMALL
bcc


@<TRIPOS>ATOM
      1 C19          7.4580    25.6970     1.3590 c          1 H63       0.675300
      2 O28          8.1910    25.0040     2.0570 o          1 H63      -0.621100
      3 C20          7.3370    27.1620     1.5160 ce         1 H63      -0.247200
      4 C21          8.0800    27.8130     2.4160 cf         1 H63      -0.021200
      5 C22          8.0740    29.2450     2.6970 ca         1 H63      -0.078800
      6 C23          7.2200    30.1500     2.0570 ca         1 H63      -0.103000
      7 C24          7.2580    31.4970     2.3700 ca         1 H63      -0.132500
      8 C25          8.1490    31.9710     3.3280 ca         1 H63      -0.112000
      9 C26          9.0020    31.0860     3.9710 ca         1 H63      -0.132500
     10 C27          8.9630    29.7360     3.6580 ca         1 H63      -0.103000
     11 N18          6.6870    25.1610     0.3920 ns         1 H63      -0.554900
     12 C13          6.7380    23.7560     0.0910 c3         1 H63       0.039700
     13 C12          8.1210    23.3780    -0.4400 c          1 H63       0.660100
     14 O29          8.7570    24.1220    -1.1640 o          1 H63      -0.595100
     15 C14          5.6730    23.3810    -0.9400 c3         1 H63      -0.088400
     16 C15          4.2510    23.5280    -0.4080 c3         1 H63      -0.075400
     17 C16          3.1790    23.1370    -1.4220 c3         1 H63      -0.075400
     18 C17          3.2110    21.6670    -1.8220 c3         1 H63      -0.091100
     19 C09         11.7000    22.1430     2.9330 c          1 H63       0.706500
     20 N08         12.4700    23.2120     3.1980 ns         1 H63      -0.581900
     21 C07         12.2720    24.3300     2.2990 c5         1 H63       0.100000
     22 C06         11.6300    23.6560     1.0860 c5         1 H63      -0.089400
     23 C05         10.8800    22.4720     1.6920 c5         1 H63      -0.159700
     24 C04         10.6770    21.2700     0.7880 c3         1 H63      -0.064400
     25 C03          9.8200    21.5920    -0.4320 c3         1 H63      -0.018300
     26 N11          8.5350    22.1460    -0.0800 ns         1 H63      -0.567900
     27 C02          9.6000    20.4030    -1.3440 c          1 H63       0.561900
     28 O01         10.2100    19.3690    -1.2820 o          1 H63      -0.499100
     29 H7           6.6290    27.6800     0.8780 ha         1 H63       0.129000
     30 H9           8.7720    27.2280     3.0150 ha         1 H63       0.144000
     31 H26          6.5170    29.8030     1.3100 ha         1 H63       0.132000
     32 H11          6.5890    32.1830     1.8670 ha         1 H63       0.134000
     33 H27          8.1750    33.0260     3.5710 ha         1 H63       0.133000
     34 H12          9.6980    31.4450     4.7180 ha         1 H63       0.134000
     35 H28          9.6300    29.0480     4.1630 ha         1 H63       0.132000
     36 H31          6.1640    25.7680    -0.2200 hn         1 H63       0.325500
     37 H1           6.5400    23.1900     1.0090 h1         1 H63       0.072700
     38 H22          5.8500    22.3460    -1.2380 hc         1 H63       0.057200
     39 H23          5.8060    23.9900    -1.8410 hc         1 H63       0.057200
     40 H2           4.0750    24.5600    -0.0930 hc         1 H63       0.042700
     41 H3           4.1420    22.9110     0.4900 hc         1 H63       0.042700
     42 H24          3.2750    23.7650    -2.3140 hc         1 H63       0.041200
     43 H25          2.2010    23.3690    -0.9950 hc         1 H63       0.041200
     44 H4           2.3710    21.4200    -2.4720 hc         1 H63       0.033700
     45 H5           4.1220    21.4050    -2.3600 hc         1 H63       0.033700
     46 H6           3.1500    21.0220    -0.9430 hc         1 H63       0.033700
     47 H20         13.2170    24.8170     2.0620 h1         1 H63       0.045700
     48 H21         11.6070    25.0790     2.7390 h1         1 H63       0.045700
     49 H18         10.9900    24.3370     0.5290 hc         1 H63       0.062700
     50 H19         12.4090    23.2960     0.4090 hc         1 H63       0.062700
     51 H17          9.9060    22.8190     2.0600 hc         1 H63       0.091700
     52 H15         10.2150    20.4590     1.3570 hc         1 H63       0.069200
     53 H16         11.6460    20.9010     0.4420 hc         1 H63       0.069200
     54 H14         10.3250    22.3430    -1.0520 h1         1 H63       0.101700
     55 H30          7.9680    21.6210     0.5700 hn         1 H63       0.318500
     56 H13          8.8120    20.5670    -2.1020 h4         1 H63      -0.006800
     57 H29         13.0150    23.2820     4.0430 hn         1 H63       0.324500
     58 O10         11.6530    21.1070     3.5760 o          1 H63      -0.634500
@<TRIPOS>BOND
     1     1     2 2   
     2     1     3 1   
     3     1    11 1   
     4     3     4 2   
     5     3    29 1   
     6     4     5 1   
     7     4    30 1   
     8     5     6 ar  
     9     5    10 ar  
    10     6     7 ar  
    11     6    31 1   
    12     7     8 ar  
    13     7    32 1   
    14     8     9 ar  
    15     8    33 1   
    16     9    10 ar  
    17     9    34 1   
    18    10    35 1   
    19    11    12 1   
    20    11    36 1   
    21    12    13 1   
    22    12    15 1   
    23    12    37 1   
    24    13    14 2   
    25    13    26 1   
    26    15    16 1   
    27    15    38 1   
    28    15    39 1   
    29    16    17 1   
    30    16    40 1   
    31    16    41 1   
    32    17    18 1   
    33    17    42 1   
    34    17    43 1   
    35    18    44 1   
    36    18    45 1   
    37    18    46 1   
    38    19    20 1   
    39    19    23 1   
    40    19    58 2   
    41    20    21 1   
    42    20    57 1   
    43    21    22 1   
    44    21    47 1   
    45    21    48 1   
    46    22    23 1   
    47    22    49 1   
    48    22    50 1   
    49    23    24 1   
    50    23    51 1   
    51    24    25 1   
    52    24    52 1   
    53    24    53 1   
    54    25    26 1   
    55    25    27 1   
    56    25    54 1   
    57    26    55 1   
    58    27    28 2   
    59    27    56 1   
@<TRIPOS>SUBSTRUCTURE
     1 H63         1 TEMP              0 ****  ****    0 ROOT
