@<TRIPOS>MOLECULE
H63
   58    59     1     0     0
SMALL
No Charge or Current Charge


@<TRIPOS>ATOM
      1 C19          6.9350    26.0270     1.7020 c          1 H63       0.608300
      2 O28          6.4250    25.4420     2.6460 o          1 H63      -0.621100
      3 C20          7.1560    27.4960     1.6820 ce         1 H63      -0.297200
      4 C21          6.8150    28.3420     2.6990 cf         1 H63      -0.071200
      5 C22          6.9820    29.8080     2.7970 ca         1 H63      -0.078800
      6 C23          7.5630    30.5620     1.7550 ca         1 H63      -0.085000
      7 C24          7.7080    31.9560     1.8780 ca         1 H63      -0.114500
      8 C25          7.2730    32.6100     3.0410 ca         1 H63      -0.094000
      9 C26          6.6930    31.8690     4.0830 ca         1 H63      -0.114500
     10 C27          6.5490    30.4760     3.9610 ca         1 H63      -0.085000
     11 N18          7.3590    25.3780     0.5670 ns         1 H63      -0.487900
     12 C13          7.2580    23.9200     0.3250 c3         1 H63       0.039700
     13 C12          8.5570    23.4000    -0.3570 c          1 H63       0.593100
     14 O29          9.3830    24.1410    -0.8770 o          1 H63      -0.595100
     15 C14          6.0000    23.5700    -0.5180 c3         1 H63      -0.088400
     16 C15          4.6520    23.9360     0.1520 c3         1 H63      -0.075400
     17 C16          3.4030    23.5750    -0.6870 c3         1 H63      -0.075400
     18 C17          3.1830    22.0610    -0.8910 c3         1 H63      -0.091100
     19 C09         12.1700    21.1990     2.4260 c          1 H63       0.564000
     20 N08         13.1840    22.0830     2.6750 ns         1 H63      -0.514900
     21 C07         13.1630    23.2850     1.8440 c5         1 H63       0.100000
     22 C06         12.3960    22.7570     0.6010 c5         1 H63      -0.089400
     23 C05         11.3690    21.7940     1.2590 c5         1 H63      -0.159700
     24 C04         10.7570    20.7270     0.3090 c3         1 H63      -0.064400
     25 C03          9.9010    21.2960    -0.8560 c3         1 H63      -0.018300
     26 N11          8.7180    22.0270    -0.3390 ns         1 H63      -0.500900
     27 C02          9.4390    20.2090    -1.8600 c          1 H63       0.561900
     28 O01          9.4020    19.0070    -1.6110 o          1 H63      -0.499100
     29 H7           7.6200    27.8920     0.7840 ha         1 H63       0.179000
     30 H9           6.3500    27.8920     3.5810 ha         1 H63       0.194000
     31 H26          7.9080    30.0810     0.8440 ha         1 H63       0.114000
     32 H11          8.1570    32.5280     1.0690 ha         1 H63       0.116000
     33 H27          7.3850    33.6890     3.1350 ha         1 H63       0.115000
     34 H12          6.3550    32.3740     4.9860 ha         1 H63       0.116000
     35 H28          6.0970    29.9170     4.7780 ha         1 H63       0.114000
     36 H31          7.8070    25.9470    -0.1420 hn         1 H63       0.325500
     37 H1           7.1880    23.4040     1.2920 h1         1 H63       0.072700
     38 H22          6.0100    22.4940    -0.7250 hc         1 H63       0.057200
     39 H23          6.0690    24.0760    -1.4900 hc         1 H63       0.057200
     40 H2           4.6260    25.0160     0.3420 hc         1 H63       0.042700
     41 H3           4.5850    23.4430     1.1300 hc         1 H63       0.042700
     42 H24          3.4660    24.0660    -1.6660 hc         1 H63       0.041200
     43 H25          2.5180    23.9890    -0.1870 hc         1 H63       0.041200
     44 H4           2.2330    21.8830    -1.4090 hc         1 H63       0.033700
     45 H5           3.9830    21.6210    -1.4970 hc         1 H63       0.033700
     46 H6           3.1490    21.5400     0.0740 hc         1 H63       0.033700
     47 H20         14.1680    23.6450     1.5870 h1         1 H63       0.045700
     48 H21         12.6160    24.1000     2.3370 h1         1 H63       0.045700
     49 H18         11.9320    23.5620     0.0220 hc         1 H63       0.062700
     50 H19         13.0760    22.2180    -0.0700 hc         1 H63       0.062700
     51 H17         10.5690    22.3960     1.7040 hc         1 H63       0.091700
     52 H15         10.1360    20.0350     0.8920 hc         1 H63       0.069200
     53 H16         11.5670    20.1190    -0.1160 hc         1 H63       0.069200
     54 H14         10.5240    21.9850    -1.4420 h1         1 H63       0.101700
     55 H30          7.9840    21.4930     0.1170 hn         1 H63       0.318500
     56 H13          9.1310    20.5920    -2.8580 h4         1 H63      -0.006800
     57 H29         13.8900    21.8410     3.3600 hn         1 H63       0.324500
     58 O10         12.1210    20.0820     2.9160 o          1 H63      -0.559000
@<TRIPOS>BOND
     1     1     2 2   
     2     1     3 1   
     3     1    11 1   
     4     3     4 2   
     5     3    29 1   
     6     4     5 1   
     7     4    30 1   
     8     5     6 ar  
     9     5    10 ar  
    10     6     7 ar  
    11     6    31 1   
    12     7     8 ar  
    13     7    32 1   
    14     8     9 ar  
    15     8    33 1   
    16     9    10 ar  
    17     9    34 1   
    18    10    35 1   
    19    11    12 1   
    20    11    36 1   
    21    12    13 1   
    22    12    15 1   
    23    12    37 1   
    24    13    14 2   
    25    13    26 1   
    26    15    16 1   
    27    15    38 1   
    28    15    39 1   
    29    16    17 1   
    30    16    40 1   
    31    16    41 1   
    32    17    18 1   
    33    17    42 1   
    34    17    43 1   
    35    18    44 1   
    36    18    45 1   
    37    18    46 1   
    38    19    20 1   
    39    19    23 1   
    40    19    58 2   
    41    20    21 1   
    42    20    57 1   
    43    21    22 1   
    44    21    47 1   
    45    21    48 1   
    46    22    23 1   
    47    22    49 1   
    48    22    50 1   
    49    23    24 1   
    50    23    51 1   
    51    24    25 1   
    52    24    52 1   
    53    24    53 1   
    54    25    26 1   
    55    25    27 1   
    56    25    54 1   
    57    26    55 1   
    58    27    28 2   
    59    27    56 1   
@<TRIPOS>SUBSTRUCTURE
     1 H63         1 TEMP              0 ****  ****    0 ROOT
