@<TRIPOS>MOLECULE
H64
   49    52     1     0     0
SMALL
bcc


@<TRIPOS>ATOM
      1 C97         -6.4530     3.0090     1.1720 c3         1 H64      -0.090100
      2 C95         -6.5130     1.8980     0.1320 c3         1 H64       0.176500
      3 C96         -7.1530     2.4070    -1.1520 c3         1 H64      -0.090100
      4 N94         -5.1770     1.3990    -0.1780 n7         1 H64      -0.808200
      5 C93         -4.5390     0.6740     0.9030 c3         1 H64       0.163800
      6 C92         -3.2260     0.0650     0.4360 c3         1 H64      -0.106400
      7 C91         -2.5340    -0.6880     1.5630 c3         1 H64       0.056300
      8 N9          -1.3390    -1.3740     1.1130 na         1 H64      -0.234000
      9 C4          -1.2950    -2.6270     0.5710 ca         1 H64       0.457800
     10 N3          -2.2970    -3.4890     0.4220 nb         1 H64      -0.747000
     11 C2          -1.8920    -4.6140    -0.1430 ca         1 H64       0.706900
     12 N1          -0.6670    -4.9420    -0.5450 nb         1 H64      -0.827000
     13 C6           0.3290    -4.0620    -0.3870 ca         1 H64       0.777200
     14 N6           1.5570    -4.3830    -0.8050 nv         1 H64      -0.951500
     15 C5           0.0250    -2.8230     0.2020 ca         1 H64      -0.223200
     16 N7           0.7860    -1.7230     0.5040 nc         1 H64      -0.544100
     17 C8          -0.0620    -0.8910     1.0310 cd         1 H64       0.406700
     18 S            0.2970     0.7180     1.6230 ss         1 H64      -0.111100
     19 C1           1.8600     0.9810     0.8510 ca         1 H64       0.009900
     20 C11          2.9990     0.9440     1.6710 ca         1 H64      -0.060000
     21 C12          4.2070     1.2100     1.0850 ca         1 H64       0.047100
     22 O3           5.4340     1.2270     1.6460 os         1 H64      -0.315900
     23 C'2          6.3480     1.6140     0.6250 c5         1 H64       0.329200
     24 O1           5.6010     1.7120    -0.5850 os         1 H64      -0.314900
     25 C7           4.3120     1.5000    -0.2670 ca         1 H64       0.082100
     26 C3           3.2170     1.5360    -1.0940 ca         1 H64      -0.109000
     27 C10          1.9760     1.2770    -0.5030 ca         1 H64       0.033100
     28 BR           0.4600     1.3190    -1.6140 br         1 H64      -0.056100
     29 H971        -5.8320     3.8350     0.8180 hc         1 H64       0.037700
     30 H972        -7.4530     3.3970     1.3690 hc         1 H64       0.037700
     31 H973        -6.0480     2.6670     2.1250 hc         1 H64       0.037700
     32 H95         -7.1480     1.0920     0.5360 h1         1 H64       0.015700
     33 H961        -6.5790     3.2390    -1.5640 hc         1 H64       0.037700
     34 H962        -7.2080     1.6240    -1.9110 hc         1 H64       0.037700
     35 H963        -8.1700     2.7560    -0.9680 hc         1 H64       0.037700
     36 H94         -5.2550     0.7720    -0.9710 hn         1 H64       0.352800
     37 H931        -4.3400     1.3620     1.7280 h1         1 H64       0.030200
     38 H932        -5.1810    -0.1230     1.3150 h1         1 H64       0.030200
     39 H921        -3.4130    -0.6270    -0.3900 hc         1 H64       0.064200
     40 H922        -2.5720     0.8520     0.0540 hc         1 H64       0.064200
     41 H911        -2.2670    -0.0160     2.3800 h1         1 H64       0.068200
     42 H912        -3.1960    -1.4420     1.9880 h1         1 H64       0.068200
     43 H2          -2.6540    -5.3700    -0.3020 h5         1 H64       0.045100
     44 HN61         2.3400    -3.7850    -0.6060 hn         1 H64       0.448800
     45 HN62         1.7460    -5.3090    -1.1450 hn         1 H64       0.448800
     46 H6           2.9130     0.7060     2.7220 ha         1 H64       0.168000
     47 H'21         6.7860     2.5860     0.8670 h2         1 H64       0.069700
     48 H'22         7.1250     0.8570     0.5170 h2         1 H64       0.069700
     49 H3           3.3160     1.7560    -2.1480 ha         1 H64       0.170000
@<TRIPOS>BOND
     1     1     2 1   
     2     1    29 1   
     3     1    30 1   
     4     1    31 1   
     5     2     3 1   
     6     2     4 1   
     7     2    32 1   
     8     3    33 1   
     9     3    34 1   
    10     3    35 1   
    11     4     5 1   
    12     4    36 1   
    13     5     6 1   
    14     5    37 1   
    15     5    38 1   
    16     6     7 1   
    17     6    39 1   
    18     6    40 1   
    19     7     8 1   
    20     7    41 1   
    21     7    42 1   
    22     8     9 1   
    23     8    17 1   
    24     9    10 ar  
    25     9    15 ar  
    26    10    11 ar  
    27    11    12 ar  
    28    11    43 1   
    29    12    13 ar  
    30    13    14 1   
    31    13    15 ar  
    32    14    44 1   
    33    14    45 1   
    34    15    16 1   
    35    16    17 2   
    36    17    18 1   
    37    18    19 1   
    38    19    20 ar  
    39    19    27 ar  
    40    20    21 ar  
    41    20    46 1   
    42    21    22 1   
    43    21    25 ar  
    44    22    23 1   
    45    23    24 1   
    46    23    47 1   
    47    23    48 1   
    48    24    25 1   
    49    25    26 ar  
    50    26    27 ar  
    51    26    49 1   
    52    27    28 1   
@<TRIPOS>SUBSTRUCTURE
     1 H64         1 TEMP              0 ****  ****    0 ROOT
