@<TRIPOS>MOLECULE
H64
   49    52     1     0     0
SMALL
No Charge or Current Charge


@<TRIPOS>ATOM
      1 C97         -6.4260     3.1620     1.1500 c3         1 H64      -0.090100
      2 C95         -6.5220     2.0310     0.1020 c3         1 H64       0.176500
      3 C96         -7.0870     2.5440    -1.2370 c3         1 H64      -0.090100
      4 N94         -5.2000     1.4260    -0.1460 n7         1 H64      -0.863400
      5 C93         -4.6410     0.6050     0.9450 c3         1 H64       0.163800
      6 C92         -3.2940     0.0050     0.5080 c3         1 H64      -0.106400
      7 C91         -2.6430    -0.8530     1.6100 c3         1 H64       0.085600
      8 N9          -1.3530    -1.4280     1.1920 na         1 H64      -0.263300
      9 C4          -1.1910    -2.6570     0.6050 ca         1 H64       0.129500
     10 N3          -2.0750    -3.6430     0.3480 nb         1 H64      -0.221000
     11 C2          -1.5690    -4.7490    -0.2470 ca         1 H64       0.180900
     12 N1          -0.2800    -4.9590    -0.6060 nb         1 H64      -0.301000
     13 C6           0.5750    -3.9590    -0.3420 ca         1 H64       0.448900
     14 N6           1.8690    -4.1710    -0.7010 nv         1 H64      -1.061900
     15 C5           0.1440    -2.7680     0.2790 ca         1 H64      -0.092600
     16 N7           0.8880    -1.6390     0.6300 nc         1 H64      -0.544100
     17 C8          -0.0710    -0.8620     1.1620 cd         1 H64       0.406700
     18 S            0.1590     0.7830     1.8130 ss         1 H64       0.015800
     19 C1           1.7180     1.0470     0.9590 ca         1 H64      -0.117000
     20 C11          2.9260     0.9320     1.6850 ca         1 H64      -0.042000
     21 C12          4.1300     1.1460     1.0040 ca         1 H64       0.047100
     22 O3           5.3730     1.0830     1.5470 os         1 H64      -0.339100
     23 C'2          6.2470     1.3230     0.3850 c5         1 H64       0.375600
     24 O1           5.4200     1.6460    -0.7890 os         1 H64      -0.338100
     25 C7           4.1570     1.4660    -0.3240 ca         1 H64       0.082100
     26 C3           2.9820     1.5990    -1.0730 ca         1 H64      -0.091000
     27 C10          1.7500     1.3860    -0.4210 ca         1 H64       0.033100
     28 Br           0.1290     1.5660    -1.4330 br         1 H64      -0.056100
     29 H971        -5.7010     3.9240     0.8390 hc         1 H64       0.037700
     30 H972        -7.4000     3.6490     1.2770 hc         1 H64       0.037700
     31 H973        -6.1220     2.7730     2.1290 hc         1 H64       0.037700
     32 H95         -7.2140     1.2660     0.4800 h1         1 H64       0.015700
     33 H961        -6.4380     3.3160    -1.6670 hc         1 H64       0.037700
     34 H962        -7.1760     1.7240    -1.9610 hc         1 H64       0.037700
     35 H963        -8.0840     2.9750    -1.0930 hc         1 H64       0.037700
     36 H94         -5.2920     0.8180    -0.9680 hn         1 H64       0.408000
     37 H931        -4.4820     1.2100     1.8470 h1         1 H64       0.030200
     38 H932        -5.3310    -0.2110     1.2030 h1         1 H64       0.030200
     39 H921        -3.4410    -0.6120    -0.3870 hc         1 H64       0.064200
     40 H922        -2.6110     0.8180     0.2330 hc         1 H64       0.064200
     41 H911        -2.4850    -0.2420     2.5080 h1         1 H64       0.068200
     42 H912        -3.3230    -1.6700     1.8850 h1         1 H64       0.068200
     43 H2          -2.2720    -5.5530    -0.4590 h5         1 H64       0.045100
     44 HN61         2.5560    -3.5260    -0.3180 hn         1 H64       0.504000
     45 HN62         2.1760    -5.1280    -0.8540 hn         1 H64       0.504000
     46 H6           2.9260     0.6810     2.7430 ha         1 H64       0.150000
     47 H'21         6.9250     2.1570     0.6000 h2         1 H64       0.069700
     48 H'22         6.8240     0.4140     0.1780 h2         1 H64       0.069700
     49 H3           3.0230     1.8600    -2.1270 ha         1 H64       0.152000
@<TRIPOS>BOND
     1     1     2 1   
     2     1    29 1   
     3     1    30 1   
     4     1    31 1   
     5     2     3 1   
     6     2     4 1   
     7     2    32 1   
     8     3    33 1   
     9     3    34 1   
    10     3    35 1   
    11     4     5 1   
    12     4    36 1   
    13     5     6 1   
    14     5    37 1   
    15     5    38 1   
    16     6     7 1   
    17     6    39 1   
    18     6    40 1   
    19     7     8 1   
    20     7    41 1   
    21     7    42 1   
    22     8     9 1   
    23     8    17 1   
    24     9    10 ar  
    25     9    15 ar  
    26    10    11 ar  
    27    11    12 ar  
    28    11    43 1   
    29    12    13 ar  
    30    13    14 1   
    31    13    15 ar  
    32    14    44 1   
    33    14    45 1   
    34    15    16 1   
    35    16    17 2   
    36    17    18 1   
    37    18    19 1   
    38    19    20 ar  
    39    19    27 ar  
    40    20    21 ar  
    41    20    46 1   
    42    21    22 1   
    43    21    25 ar  
    44    22    23 1   
    45    23    24 1   
    46    23    47 1   
    47    23    48 1   
    48    24    25 1   
    49    25    26 ar  
    50    26    27 ar  
    51    26    49 1   
    52    27    28 1   
@<TRIPOS>SUBSTRUCTURE
     1 H64         1 TEMP              0 ****  ****    0 ROOT
