@<TRIPOS>MOLECULE
H65
   49    51     1     0     0
SMALL
abcg2


@<TRIPOS>ATOM
      1 N01          3.7210     1.2810     0.1700 nb         1 H65      -0.756000
      2 C02          4.9550     1.7400     0.3460 ca         1 H65       0.602900
      3 N02          5.0870     2.9480     0.9670 nv         1 H65      -1.058900
      4 C03          6.0910     1.0070    -0.0420 ca         1 H65      -0.233000
      5 C04          5.9240    -0.2350    -0.6190 ca         1 H65       0.001700
      6 C05          4.6180    -0.7090    -0.7950 ca         1 H65      -0.215000
      7 C06          3.5580     0.0800    -0.3890 ca         1 H65       0.396300
      8 C07          7.1000    -1.0670    -1.0300 c3         1 H65      -0.053800
      9 C08          2.1390    -0.3950    -0.5270 c3         1 H65      -0.124700
     10 C09          1.5190    -0.7320     0.8370 c3         1 H65      -0.024100
     11 N11         -1.4780    -2.9930     0.6400 nb         1 H65      -0.665000
     12 C12         -0.2420    -2.5330     0.7880 ca         1 H65       0.331900
     13 C13          0.0970    -1.1880     0.7030 ca         1 H65      -0.128300
     14 C14         -0.9370    -0.2930     0.4450 ca         1 H65      -0.073000
     15 C15         -2.2390    -0.7450     0.2840 ca         1 H65      -0.124300
     16 C16         -2.4440    -2.1200     0.3940 ca         1 H65       0.335900
     17 C23         -4.1190    -0.1280    -1.2840 c6         1 H65      -0.070400
     18 C24         -3.3780     0.2020     0.0130 c6         1 H65      -0.012400
     19 C25         -4.3820     0.2410     1.1670 c6         1 H65      -0.070400
     20 C22         -5.2770     0.8330    -1.5030 c6         1 H65       0.165800
     21 C26         -5.5330     1.1840     0.8520 c6         1 H65       0.165800
     22 N21         -6.1980     0.8150    -0.3830 n3         1 H65      -0.716600
     23 C27         -7.3480     1.6530    -0.6330 c3         1 H65       0.153100
     24 H021         5.9530     3.4440     0.8490 hn         1 H65       0.470000
     25 H022         4.2690     3.5340     0.9830 hn         1 H65       0.470000
     26 H03          7.0820     1.4170     0.1170 ha         1 H65       0.119000
     27 H05          4.4370    -1.6760    -1.2470 ha         1 H65       0.122000
     28 H071         7.2060    -1.9290    -0.3690 hc         1 H65       0.047033
     29 H072         6.9750    -1.4540    -2.0410 hc         1 H65       0.047033
     30 H073         8.0290    -0.5000    -0.9910 hc         1 H65       0.047033
     31 H081         1.5410     0.3850    -1.0080 hc         1 H65       0.055200
     32 H082         2.0980    -1.2750    -1.1720 hc         1 H65       0.055200
     33 H091         2.1130    -1.5110     1.3200 hc         1 H65       0.058700
     34 H092         1.5720     0.1510     1.4780 hc         1 H65       0.058700
     35 H14         -0.7260     0.7700     0.3700 ha         1 H65       0.119000
     36 H16         -3.4410    -2.5350     0.2740 h4         1 H65       0.020100
     37 H24         -2.9560     1.2080    -0.0920 hc         1 H65       0.048700
     38 H251        -4.7770    -0.7630     1.3510 hc         1 H65       0.050950
     39 H252        -3.8910     0.5660     2.0870 hc         1 H65       0.050950
     40 H231        -3.4370    -0.0750    -2.1350 hc         1 H65       0.050950
     41 H232        -4.5060    -1.1500    -1.2440 hc         1 H65       0.050950
     42 H261        -6.2630     1.1540     1.6650 h1         1 H65       0.030200
     43 H262        -5.1510     2.2200     0.8090 h1         1 H65       0.030200
     44 H221        -4.8780     1.8490    -1.6810 h1         1 H65       0.030200
     45 H222        -5.8200     0.5490    -2.4080 h1         1 H65       0.030200
     46 H271        -7.8660     1.3200    -1.5340 h1         1 H65       0.030033
     47 H272        -8.0500     1.5850     0.2000 h1         1 H65       0.030033
     48 H273        -7.0910     2.7160    -0.7690 h1         1 H65       0.030033
     49 H12          0.5290    -3.2710     0.9890 h4         1 H65       0.016100
@<TRIPOS>BOND
     1     1     2 ar  
     2     1     7 ar  
     3     2     3 1   
     4     2     4 ar  
     5     3    24 1   
     6     3    25 1   
     7     4     5 ar  
     8     4    26 1   
     9     5     6 ar  
    10     5     8 1   
    11     6     7 ar  
    12     6    27 1   
    13     7     9 1   
    14     8    28 1   
    15     8    29 1   
    16     8    30 1   
    17     9    10 1   
    18     9    31 1   
    19     9    32 1   
    20    10    13 1   
    21    10    33 1   
    22    10    34 1   
    23    11    12 ar  
    24    11    16 ar  
    25    12    13 ar  
    26    12    49 1   
    27    13    14 ar  
    28    14    15 ar  
    29    14    35 1   
    30    15    16 ar  
    31    15    18 1   
    32    16    36 1   
    33    17    18 1   
    34    17    20 1   
    35    17    40 1   
    36    17    41 1   
    37    18    19 1   
    38    18    37 1   
    39    19    21 1   
    40    19    38 1   
    41    19    39 1   
    42    20    22 1   
    43    20    44 1   
    44    20    45 1   
    45    21    22 1   
    46    21    42 1   
    47    21    43 1   
    48    22    23 1   
    49    23    46 1   
    50    23    47 1   
    51    23    48 1   
@<TRIPOS>SUBSTRUCTURE
     1 H65         1 TEMP              0 ****  ****    0 ROOT
