@<TRIPOS>MOLECULE
H65
   49    51     1     0     0
SMALL
No Charge or Current Charge


@<TRIPOS>ATOM
      1 N01          3.8300     1.5180    -0.2300 nb         1 H65      -0.756000
      2 C02          5.0820     1.9070    -0.0450 ca         1 H65       0.602900
      3 N02          5.1560     3.2270     0.1320 nv         1 H65      -1.058900
      4 C03          6.1950     1.0640    -0.0450 ca         1 H65      -0.233000
      5 C04          5.9920    -0.3090    -0.2500 ca         1 H65       0.001700
      6 C05          4.6710    -0.7430    -0.4420 ca         1 H65      -0.215000
      7 C06          3.6220     0.1970    -0.4280 ca         1 H65       0.396300
      8 C07          7.1540    -1.2880    -0.2550 c3         1 H65      -0.053800
      9 C08          2.1810    -0.2460    -0.6280 c3         1 H65      -0.124700
     10 C09          1.5480    -0.7980     0.6680 c3         1 H65      -0.024100
     11 N11         -1.4490    -3.1000     0.1490 nb         1 H65      -0.665000
     12 C12         -0.1930    -2.6340     0.3410 ca         1 H65       0.331900
     13 C13          0.1130    -1.2620     0.4550 ca         1 H65      -0.128300
     14 C14         -0.9350    -0.3290     0.3660 ca         1 H65      -0.073000
     15 C15         -2.2470    -0.8000     0.1660 ca         1 H65      -0.124300
     16 C16         -2.4500    -2.1930     0.0640 ca         1 H65       0.335900
     17 C23         -4.1250     0.1080    -1.3180 c6         1 H65      -0.070400
     18 C24         -3.4190     0.1860     0.0610 c6         1 H65      -0.012400
     19 C25         -4.4640    -0.0280     1.1860 c6         1 H65      -0.070400
     20 C22         -5.3160     1.0950    -1.3910 c6         1 H65       0.165800
     21 C26         -5.6460     0.9620     1.0450 c6         1 H65       0.165800
     22 N21         -6.2920     0.8560    -0.2920 n3         1 H65      -0.716600
     23 C27         -7.4890     1.7160    -0.4080 c3         1 H65       0.153100
     24 H021         6.0440     3.6740    -0.0650 hn         1 H65       0.470000
     25 H022         4.3210     3.7410    -0.1230 hn         1 H65       0.470000
     26 H03          7.1910     1.4650     0.1150 ha         1 H65       0.119000
     27 H05          4.4530    -1.7950    -0.6010 ha         1 H65       0.122000
     28 H071         7.3210    -1.7000     0.7470 hc         1 H65       0.047033
     29 H072         6.9640    -2.1270    -0.9360 hc         1 H65       0.047033
     30 H073         8.0830    -0.8050    -0.5790 hc         1 H65       0.047033
     31 H081         1.5730     0.5890    -0.9990 hc         1 H65       0.055200
     32 H082         2.1400    -1.0200    -1.4030 hc         1 H65       0.055200
     33 H091         2.1640    -1.6250     1.0450 hc         1 H65       0.058700
     34 H092         1.5770    -0.0200     1.4410 hc         1 H65       0.058700
     35 H14         -0.7320     0.7370     0.4490 ha         1 H65       0.119000
     36 H16         -3.4480    -2.6020    -0.0910 h4         1 H65       0.020100
     37 H24         -3.0240     1.2060     0.1700 hc         1 H65       0.048700
     38 H251        -4.8520    -1.0560     1.1580 hc         1 H65       0.050950
     39 H252        -3.9900     0.1020     2.1680 hc         1 H65       0.050950
     40 H231        -3.4090     0.3360    -2.1190 hc         1 H65       0.050950
     41 H232        -4.4900    -0.9110    -1.5040 hc         1 H65       0.050950
     42 H261        -6.3780     0.7510     1.8380 h1         1 H65       0.030200
     43 H262        -5.2780     1.9860     1.2090 h1         1 H65       0.030200
     44 H221        -4.9320     2.1250    -1.3410 h1         1 H65       0.030200
     45 H222        -5.8080     0.9800    -2.3680 h1         1 H65       0.030200
     46 H271        -7.9790     1.5700    -1.3800 h1         1 H65       0.030033
     47 H272        -8.2170     1.4740     0.3770 h1         1 H65       0.030033
     48 H273        -7.2200     2.7770    -0.3140 h1         1 H65       0.030033
     49 H12          0.5930    -3.3860     0.4030 h4         1 H65       0.016100
@<TRIPOS>BOND
     1     1     2 ar  
     2     1     7 ar  
     3     2     3 1   
     4     2     4 ar  
     5     3    24 1   
     6     3    25 1   
     7     4     5 ar  
     8     4    26 1   
     9     5     6 ar  
    10     5     8 1   
    11     6     7 ar  
    12     6    27 1   
    13     7     9 1   
    14     8    28 1   
    15     8    29 1   
    16     8    30 1   
    17     9    10 1   
    18     9    31 1   
    19     9    32 1   
    20    10    13 1   
    21    10    33 1   
    22    10    34 1   
    23    11    12 ar  
    24    11    16 ar  
    25    12    13 ar  
    26    12    49 1   
    27    13    14 ar  
    28    14    15 ar  
    29    14    35 1   
    30    15    16 ar  
    31    15    18 1   
    32    16    36 1   
    33    17    18 1   
    34    17    20 1   
    35    17    40 1   
    36    17    41 1   
    37    18    19 1   
    38    18    37 1   
    39    19    21 1   
    40    19    38 1   
    41    19    39 1   
    42    20    22 1   
    43    20    44 1   
    44    20    45 1   
    45    21    22 1   
    46    21    42 1   
    47    21    43 1   
    48    22    23 1   
    49    23    46 1   
    50    23    47 1   
    51    23    48 1   
@<TRIPOS>SUBSTRUCTURE
     1 H65         1 TEMP              0 ****  ****    0 ROOT
