@<TRIPOS>MOLECULE
H66
   60    63     1     0     0
SMALL
No Charge or Current Charge


@<TRIPOS>ATOM
      1 N01         22.9440   -10.6250    38.2430 nv         1 H66      -1.072900
      2 C02         21.8670   -10.0500    37.6580 ca         1 H66       0.451900
      3 N03         21.4560    -8.9240    38.2530 nb         1 H66      -0.326000
      4 C04         20.3610    -8.3210    37.7340 ca         1 H66       0.279300
      5 S05         19.7620    -6.8320    38.5300 ss         1 H66      -0.273300
      6 C06         20.5280    -6.8370    40.2300 c3         1 H66      -0.063400
      7 C07         19.9140    -7.8690    41.1890 c          1 H66       0.602100
      8 N08         20.3760    -9.1560    41.0410 ns         1 H66      -0.494900
      9 C09         19.9740   -10.3000    41.8690 c3         1 H66       0.106000
     10 C10         18.5250   -10.7990    41.6150 c3         1 H66       0.157800
     11 N11         18.1920   -11.1860    40.2140 n3         1 H66      -0.762600
     12 C12         19.1150   -12.2150    39.6390 c6         1 H66       0.183300
     13 C13         18.6410   -12.7910    38.2730 c6         1 H66      -0.076400
     14 C14         17.5410   -11.9240    37.6250 c6         1 H66      -0.062400
     15 C15         16.3380   -11.7670    38.5870 c6         1 H66      -0.076400
     16 C16         16.7660   -11.5910    40.0730 c6         1 H66       0.183300
     17 O17         19.1020    -7.5610    42.0510 o          1 H66      -0.608100
     18 N18         19.6720    -8.7360    36.6500 nb         1 H66      -0.172000
     19 C19         20.1190    -9.8620    36.0690 ca         1 H66       0.177300
     20 C20         21.2080   -10.5730    36.5350 ca         1 H66      -0.239800
     21 C21         21.4700   -11.7960    35.7850 cc         1 H66      -0.044400
     22 C22         20.5060   -11.9450    34.7910 cd         1 H66      -0.075600
     23 C23         20.4150   -13.1410    33.8690 c6         1 H66      -0.005200
     24 C24         21.1960   -14.3600    34.4290 c6         1 H66      -0.057700
     25 C25         21.2930   -15.5310    33.4030 c3         1 H66      -0.073400
     26 C26         19.9420   -16.1390    32.9690 c3         1 H66      -0.089100
     27 C27         22.6030   -13.9010    34.8890 c6         1 H66      -0.070400
     28 C28         22.5260   -12.8570    36.0320 c6         1 H66      -0.017200
     29 S29         19.3400   -10.6000    34.6670 ss         1 H66      -0.101900
     30 H1          23.5050   -10.0490    38.8630 hn         1 H66       0.500500
     31 H2          23.4400   -11.3420    37.7270 hn         1 H66       0.500500
     32 H3          21.6070    -7.0160    40.1590 h1         1 H66       0.102200
     33 H4          20.3810    -5.8500    40.6830 h1         1 H66       0.102200
     34 H5          21.0040    -9.3240    40.2640 hn         1 H66       0.337500
     35 H6          20.6780   -11.1220    41.6880 h1         1 H66       0.054700
     36 H7          20.0700   -10.0180    42.9260 h1         1 H66       0.054700
     37 H8          17.8390   -10.0060    41.9420 h1         1 H66       0.044700
     38 H9          18.3490   -11.6550    42.2820 h1         1 H66       0.044700
     39 H11         19.2450   -13.0520    40.3420 h1         1 H66       0.030450
     40 H12         20.1100   -11.7700    39.4930 h1         1 H66       0.030450
     41 H13         18.2520   -13.8070    38.4270 hc         1 H66       0.039700
     42 H14         19.4970   -12.8930    37.5940 hc         1 H66       0.039700
     43 H15         17.2150   -12.3600    36.6710 hc         1 H66       0.037200
     44 H16         17.9460   -10.9310    37.3960 hc         1 H66       0.037200
     45 H17         15.7390   -10.9020    38.2720 hc         1 H66       0.039700
     46 H18         15.6770   -12.6410    38.5070 hc         1 H66       0.039700
     47 H19         16.1020   -10.8510    40.5430 h1         1 H66       0.030450
     48 H20         16.6030   -12.5430    40.6010 h1         1 H66       0.030450
     49 H21         20.8100   -12.8690    32.8800 hc         1 H66       0.055700
     50 H22         19.3610   -13.4100    33.7160 hc         1 H66       0.055700
     51 H23         20.6570   -14.7520    35.3040 hc         1 H66       0.052700
     52 H24         21.8970   -16.3390    33.8330 hc         1 H66       0.039700
     53 H25         21.8300   -15.1980    32.5050 hc         1 H66       0.039700
     54 H26         20.1080   -17.0080    32.3210 hc         1 H66       0.033700
     55 H27         19.3660   -16.4680    33.8420 hc         1 H66       0.033700
     56 H28         19.3430   -15.4120    32.4090 hc         1 H66       0.033700
     57 H29         23.1960   -14.7620    35.2260 hc         1 H66       0.045200
     58 H30         23.1440   -13.4680    34.0360 hc         1 H66       0.045200
     59 H31         22.3070   -13.3770    36.9750 hc         1 H66       0.045200
     60 H32         23.5170   -12.4020    36.1500 hc         1 H66       0.045200
@<TRIPOS>BOND
     1     1     2 1   
     2     1    30 1   
     3     1    31 1   
     4     2     3 ar  
     5     2    20 ar  
     6     3     4 ar  
     7     4     5 1   
     8     4    18 ar  
     9     5     6 1   
    10     6     7 1   
    11     6    32 1   
    12     6    33 1   
    13     7     8 1   
    14     7    17 2   
    15     8     9 1   
    16     8    34 1   
    17     9    10 1   
    18     9    35 1   
    19     9    36 1   
    20    10    11 1   
    21    10    37 1   
    22    10    38 1   
    23    11    12 1   
    24    11    16 1   
    25    12    13 1   
    26    12    39 1   
    27    12    40 1   
    28    13    14 1   
    29    13    41 1   
    30    13    42 1   
    31    14    15 1   
    32    14    43 1   
    33    14    44 1   
    34    15    16 1   
    35    15    45 1   
    36    15    46 1   
    37    16    47 1   
    38    16    48 1   
    39    18    19 ar  
    40    19    20 ar  
    41    19    29 1   
    42    20    21 1   
    43    21    22 2   
    44    21    28 1   
    45    22    23 1   
    46    22    29 1   
    47    23    24 1   
    48    23    49 1   
    49    23    50 1   
    50    24    25 1   
    51    24    27 1   
    52    24    51 1   
    53    25    26 1   
    54    25    52 1   
    55    25    53 1   
    56    26    54 1   
    57    26    55 1   
    58    26    56 1   
    59    27    28 1   
    60    27    57 1   
    61    27    58 1   
    62    28    59 1   
    63    28    60 1   
@<TRIPOS>SUBSTRUCTURE
     1 H66         1 TEMP              0 ****  ****    0 ROOT
