@<TRIPOS>MOLECULE
H66
   60    63     1     0     0
SMALL
abcg2


@<TRIPOS>ATOM
      1 N01         22.4750   -10.8450    38.1190 nv         1 H66      -1.072900
      2 C02         21.4230   -10.2450    37.5560 ca         1 H66       0.451900
      3 N03         20.9460    -9.1590    38.1720 nb         1 H66      -0.326000
      4 C04         19.9050    -8.5370    37.6450 ca         1 H66       0.279300
      5 S05         19.2690    -7.0910    38.4260 ss         1 H66      -0.273300
      6 C06         20.3700    -6.8600    39.8460 c3         1 H66      -0.063400
      7 C07         19.8670    -7.5980    41.0750 c          1 H66       0.602100
      8 N08         20.2400    -8.8820    41.1540 ns         1 H66      -0.494900
      9 C09         19.8090    -9.7660    42.2140 c3         1 H66       0.106000
     10 C10         18.4990   -10.4830    41.9100 c3         1 H66       0.157800
     11 N11         18.6270   -11.3890    40.7830 n3         1 H66      -0.762600
     12 C12         18.4370   -12.7920    41.0970 c6         1 H66       0.183300
     13 C13         19.0910   -13.6700    40.0200 c6         1 H66      -0.076400
     14 C14         19.1450   -12.9360    38.6790 c6         1 H66      -0.062400
     15 C15         17.9130   -12.0570    38.5190 c6         1 H66      -0.076400
     16 C16         17.8540   -10.9890    39.6200 c6         1 H66       0.183300
     17 O17         19.1790    -7.0320    41.9130 o          1 H66      -0.608100
     18 N18         19.2320    -8.8670    36.5620 nb         1 H66      -0.172000
     19 C19         19.7000    -9.9600    35.9630 ca         1 H66       0.177300
     20 C20         20.8020   -10.7090    36.3700 ca         1 H66      -0.239800
     21 C21         21.0510   -11.8400    35.5150 cc         1 H66      -0.044400
     22 C22         20.1340   -11.9310    34.5210 cd         1 H66      -0.075600
     23 C23         20.0710   -12.9950    33.4770 c6         1 H66      -0.005200
     24 C24         20.9500   -14.1870    33.8660 c6         1 H66      -0.057700
     25 C25         21.1320   -15.1600    32.7040 c3         1 H66      -0.073400
     26 C26         19.8320   -15.7320    32.1540 c3         1 H66      -0.089100
     27 C27         22.2970   -13.6850    34.3780 c6         1 H66      -0.070400
     28 C28         22.1640   -12.8360    35.6390 c6         1 H66      -0.017200
     29 S29         18.9600   -10.6450    34.5610 ss         1 H66      -0.101900
     30 H1          22.8320   -10.4990    38.9930 hn         1 H66       0.500500
     31 H2          22.8300   -11.7250    37.7920 hn         1 H66       0.500500
     32 H3          21.3810    -7.1500    39.5640 h1         1 H66       0.102200
     33 H4          20.3600    -5.7900    40.0490 h1         1 H66       0.102200
     34 H5          20.7130    -9.2790    40.3520 hn         1 H66       0.337500
     35 H6          20.5960   -10.5040    42.3740 h1         1 H66       0.054700
     36 H7          19.7140    -9.1880    43.1340 h1         1 H66       0.054700
     37 H8          17.7150    -9.7400    41.7300 h1         1 H66       0.044700
     38 H9          18.1930   -11.0250    42.8110 h1         1 H66       0.044700
     39 H11         17.3670   -13.0450    41.1980 h1         1 H66       0.030450
     40 H12         18.8880   -13.0020    42.0680 h1         1 H66       0.030450
     41 H13         18.5260   -14.6000    39.9230 hc         1 H66       0.039700
     42 H14         20.1010   -13.9500    40.3280 hc         1 H66       0.039700
     43 H15         19.2210   -13.6450    37.8520 hc         1 H66       0.037200
     44 H16         20.0410   -12.3160    38.6390 hc         1 H66       0.037200
     45 H17         17.9000   -11.5780    37.5370 hc         1 H66       0.039700
     46 H18         17.0200   -12.6880    38.5580 hc         1 H66       0.039700
     47 H19         18.2550   -10.0420    39.2510 h1         1 H66       0.030450
     48 H20         16.8000   -10.7930    39.8810 h1         1 H66       0.030450
     49 H21         20.3950   -12.5920    32.5100 hc         1 H66       0.055700
     50 H22         19.0360   -13.3180    33.3370 hc         1 H66       0.055700
     51 H23         20.4490   -14.7200    34.6850 hc         1 H66       0.052700
     52 H24         21.7730   -15.9810    33.0390 hc         1 H66       0.039700
     53 H25         21.6810   -14.6560    31.9010 hc         1 H66       0.039700
     54 H26         20.0300   -16.4840    31.3890 hc         1 H66       0.033700
     55 H27         19.2450   -16.2100    32.9410 hc         1 H66       0.033700
     56 H28         19.2080   -14.9640    31.6970 hc         1 H66       0.033700
     57 H29         22.9630   -14.5270    34.5820 hc         1 H66       0.045200
     58 H30         22.7770   -13.0910    33.5930 hc         1 H66       0.045200
     59 H31         21.9900   -13.4840    36.5060 hc         1 H66       0.045200
     60 H32         23.1140   -12.3250    35.8190 hc         1 H66       0.045200
@<TRIPOS>BOND
     1     1     2 1   
     2     1    30 1   
     3     1    31 1   
     4     2     3 ar  
     5     2    20 ar  
     6     3     4 ar  
     7     4     5 1   
     8     4    18 ar  
     9     5     6 1   
    10     6     7 1   
    11     6    32 1   
    12     6    33 1   
    13     7     8 1   
    14     7    17 2   
    15     8     9 1   
    16     8    34 1   
    17     9    10 1   
    18     9    35 1   
    19     9    36 1   
    20    10    11 1   
    21    10    37 1   
    22    10    38 1   
    23    11    12 1   
    24    11    16 1   
    25    12    13 1   
    26    12    39 1   
    27    12    40 1   
    28    13    14 1   
    29    13    41 1   
    30    13    42 1   
    31    14    15 1   
    32    14    43 1   
    33    14    44 1   
    34    15    16 1   
    35    15    45 1   
    36    15    46 1   
    37    16    47 1   
    38    16    48 1   
    39    18    19 ar  
    40    19    20 ar  
    41    19    29 1   
    42    20    21 1   
    43    21    22 2   
    44    21    28 1   
    45    22    23 1   
    46    22    29 1   
    47    23    24 1   
    48    23    49 1   
    49    23    50 1   
    50    24    25 1   
    51    24    27 1   
    52    24    51 1   
    53    25    26 1   
    54    25    52 1   
    55    25    53 1   
    56    26    54 1   
    57    26    55 1   
    58    26    56 1   
    59    27    28 1   
    60    27    57 1   
    61    27    58 1   
    62    28    59 1   
    63    28    60 1   
@<TRIPOS>SUBSTRUCTURE
     1 H66         1 TEMP              0 ****  ****    0 ROOT
