@<TRIPOS>MOLECULE
H67
   68    72     1     0     0
SMALL
abcg2


@<TRIPOS>ATOM
      1 C10         -1.6570     1.4800     0.2700 cc         1 H67       0.254900
      2 C13         -2.3180    -1.8300    -0.6440 c3         1 H67      -0.119100
      3 C15         -4.7260    -1.2340     1.1780 c3         1 H67       0.168600
      4 C20         -8.4120     0.8390    -1.9870 c6         1 H67      -0.073400
      5 C21         -7.4360    -0.3190    -2.1540 c6         1 H67      -0.075900
      6 C22         -7.0560    -0.9060    -0.8030 c6         1 H67       0.173300
      7 C24          0.7740    -1.1220     1.0640 ca         1 H67       0.007000
      8 C26          2.6470    -2.5290     0.4310 cp         1 H67      -0.037000
      9 C28          4.1190    -4.1110    -0.8270 ca         1 H67      -0.098000
     10 C03          3.6020     2.9870    -0.1450 ca         1 H67      -0.108600
     11 C04          4.3290     2.4940     0.9340 ca         1 H67      -0.133000
     12 C05          3.7030     1.6510     1.8360 ca         1 H67       0.304900
     13 C07          1.7560     1.7380     0.6940 ca         1 H67       0.387500
     14 C11         -1.4340     0.1320     0.6070 cc         1 H67      -0.212300
     15 C12         -2.4410    -0.9770     0.6160 c3         1 H67       0.262600
     16 C16         -6.0120    -0.4480     1.3230 c3         1 H67       0.173800
     17 C18         -7.4560     1.1790     0.3060 c6         1 H67       0.173300
     18 C19         -7.8480     1.8530    -1.0000 c6         1 H67      -0.075900
     19 C23         -0.0720     0.0470     0.8000 cd         1 H67      -0.072000
     20 C25          1.8310    -1.4240     0.2100 ca         1 H67      -0.070000
     21 C27          3.7890    -2.8040    -0.4640 cp         1 H67      -0.033000
     22 C29          5.1950    -4.3630    -1.6660 ca         1 H67      -0.113500
     23 C30          5.9610    -3.3140    -2.1570 ca         1 H67      -0.116000
     24 C31          5.6440    -2.0090    -1.8010 ca         1 H67      -0.113500
     25 C32          4.5680    -1.7580    -0.9620 ca         1 H67      -0.098000
     26 C33          2.3660    -3.3590     1.5180 ca         1 H67      -0.102000
     27 C34          1.3040    -3.0760     2.3610 ca         1 H67      -0.124000
     28 C35          0.5110    -1.9590     2.1440 ca         1 H67      -0.087000
     29 C36          2.2780     2.5910    -0.2680 ca         1 H67      -0.103000
     30 N06          2.4310     1.2820     1.7310 nb         1 H67      -0.706000
     31 N08          0.4180     1.2990     0.5820 na         1 H67       0.144300
     32 N09         -0.5370     2.1710     0.2590 nd         1 H67      -0.496800
     33 N17         -6.5040     0.1070     0.0790 n3         1 H67      -0.706600
     34 O01          3.5010     4.2950    -2.1030 o          1 H67      -0.705000
     35 O14         -3.7080    -0.3720     0.7290 os         1 H67      -0.437000
     36 O37          5.4310     4.2140    -0.9830 o          1 H67      -0.705000
     37 H1          -2.5940     1.9650     0.0410 h4         1 H67       0.043100
     38 H2          -2.4560    -1.2190    -1.5380 hc         1 H67       0.039367
     39 H3          -1.3270    -2.2840    -0.6960 hc         1 H67       0.039367
     40 H4          -3.0480    -2.6400    -0.6600 hc         1 H67       0.039367
     41 H5          -4.4680    -1.6580     2.1590 h1         1 H67       0.014700
     42 H6          -4.8590    -2.0860     0.5000 h1         1 H67       0.014700
     43 H7          -8.6210     1.3110    -2.9500 hc         1 H67       0.032700
     44 H8          -9.3680     0.4590    -1.6120 hc         1 H67       0.032700
     45 H9          -7.8670    -1.1040    -2.7790 hc         1 H67       0.047200
     46 H10         -6.5300     0.0320    -2.6580 hc         1 H67       0.047200
     47 H11         -7.9450    -1.3840    -0.3500 h1         1 H67       0.024700
     48 H12         -6.3200    -1.6980    -0.9500 h1         1 H67       0.024700
     49 H13          3.5200    -4.9380    -0.4680 ha         1 H67       0.120500
     50 H14          5.3660     2.7650     1.0720 ha         1 H67       0.140000
     51 H15          4.2450     1.2600     2.6900 h4         1 H67       0.000100
     52 H16         -2.2640    -1.6270     1.4860 h1         1 H67       0.025700
     53 H17         -6.7530    -1.1040     1.8120 h1         1 H67       0.033700
     54 H18         -5.8280     0.3760     2.0190 h1         1 H67       0.033700
     55 H19         -7.0000     1.9130     0.9750 h1         1 H67       0.024700
     56 H20         -8.3680     0.8140     0.8140 h1         1 H67       0.024700
     57 H21         -6.9630     2.3320    -1.4320 hc         1 H67       0.047200
     58 H22         -8.5730     2.6440    -0.7980 hc         1 H67       0.047200
     59 H23          2.0080    -0.7960    -0.6550 ha         1 H67       0.130000
     60 H24          5.4310    -5.3830    -1.9420 ha         1 H67       0.112000
     61 H25          6.8020    -3.5100    -2.8090 ha         1 H67       0.105000
     62 H26          6.2410    -1.1850    -2.1680 ha         1 H67       0.112000
     63 H27          4.3460    -0.7370    -0.6760 ha         1 H67       0.120500
     64 H28          2.9940    -4.2180     1.7200 ha         1 H67       0.106000
     65 H29          1.1030    -3.7220     3.2060 ha         1 H67       0.103000
     66 H30         -0.2990    -1.7330     2.8260 ha         1 H67       0.115000
     67 H31          1.6730     2.9300    -1.0970 ha         1 H67       0.160000
     68 C02          4.2380     3.9210    -1.1750 c          1 H67       0.714600
@<TRIPOS>BOND
     1     1    14 1   
     2     1    32 2   
     3     1    37 1   
     4     2    15 1   
     5     2    38 1   
     6     2    39 1   
     7     2    40 1   
     8     3    16 1   
     9     3    35 1   
    10     3    41 1   
    11     3    42 1   
    12     4     5 1   
    13     4    18 1   
    14     4    43 1   
    15     4    44 1   
    16     5     6 1   
    17     5    45 1   
    18     5    46 1   
    19     6    33 1   
    20     6    47 1   
    21     6    48 1   
    22     7    19 1   
    23     7    20 ar  
    24     7    28 ar  
    25     8    20 ar  
    26     8    21 1   
    27     8    26 ar  
    28     9    21 ar  
    29     9    22 ar  
    30     9    49 1   
    31    10    11 ar  
    32    10    29 ar  
    33    10    68 1   
    34    11    12 ar  
    35    11    50 1   
    36    12    30 ar  
    37    12    51 1   
    38    13    29 ar  
    39    13    30 ar  
    40    13    31 1   
    41    14    15 1   
    42    14    19 2   
    43    15    35 1   
    44    15    52 1   
    45    16    33 1   
    46    16    53 1   
    47    16    54 1   
    48    17    18 1   
    49    17    33 1   
    50    17    55 1   
    51    17    56 1   
    52    18    57 1   
    53    18    58 1   
    54    19    31 1   
    55    20    59 1   
    56    21    25 ar  
    57    22    23 ar  
    58    22    60 1   
    59    23    24 ar  
    60    23    61 1   
    61    24    25 ar  
    62    24    62 1   
    63    25    63 1   
    64    26    27 ar  
    65    26    64 1   
    66    27    28 ar  
    67    27    65 1   
    68    28    66 1   
    69    29    67 1   
    70    31    32 1   
    71    34    68 1   
    72    36    68 1   
@<TRIPOS>SUBSTRUCTURE
     1 H67         1 TEMP              0 ****  ****    0 ROOT
