@<TRIPOS>MOLECULE
H67
   68    72     1     0     0
SMALL
No Charge or Current Charge


@<TRIPOS>ATOM
      1 C10         -1.8000     1.3950     0.6540 cc         1 H67       0.254900
      2 C13         -2.5610    -2.0600    -0.1680 c3         1 H67      -0.119100
      3 C15         -4.9740    -1.1770     1.4510 c3         1 H67       0.168600
      4 C20         -8.4200     1.0470    -2.1020 c6         1 H67      -0.073400
      5 C21         -7.2510     0.0470    -2.2490 c6         1 H67      -0.075900
      6 C22         -6.9380    -0.6490    -0.9010 c6         1 H67       0.173300
      7 C24          0.7480    -1.2770     0.8920 ca         1 H67       0.007000
      8 C26          2.8190    -2.5170     0.3240 cp         1 H67      -0.037000
      9 C28          4.5880    -3.8470    -0.9250 ca         1 H67      -0.098000
     10 C03          3.6140     2.4130    -0.5630 ca         1 H67      -0.108600
     11 C04          4.3230     2.2860     0.6490 ca         1 H67      -0.133000
     12 C05          3.6560     1.8280     1.7940 ca         1 H67       0.304900
     13 C07          1.6350     1.5850     0.6430 ca         1 H67       0.387500
     14 C11         -1.4970     0.0230     0.8270 cc         1 H67      -0.212300
     15 C12         -2.5690    -1.0370     0.9930 c3         1 H67       0.262600
     16 C16         -6.2530    -0.2910     1.4730 c3         1 H67       0.173800
     17 C18         -7.7940     1.2850     0.3580 c6         1 H67       0.173300
     18 C19         -8.1270     2.0380    -0.9540 c6         1 H67      -0.075900
     19 C23         -0.1250    -0.0830     0.7160 cd         1 H67      -0.072000
     20 C25          1.9660    -1.3940     0.1840 ca         1 H67      -0.070000
     21 C27          4.1050    -2.6050    -0.4390 cp         1 H67      -0.033000
     22 C29          5.7940    -3.9270    -1.6430 ca         1 H67      -0.113500
     23 C30          6.5440    -2.7660    -1.8890 ca         1 H67      -0.116000
     24 C31          6.0870    -1.5260    -1.4170 ca         1 H67      -0.113500
     25 C32          4.8810    -1.4470    -0.7000 ca         1 H67      -0.098000
     26 C33          2.4140    -3.5510     1.2000 ca         1 H67      -0.102000
     27 C34          1.2060    -3.4590     1.9050 ca         1 H67      -0.124000
     28 C35          0.3810    -2.3340     1.7520 ca         1 H67      -0.087000
     29 C36          2.2460     2.0570    -0.5410 ca         1 H67      -0.103000
     30 N06          2.3490     1.4890     1.8010 nb         1 H67      -0.706000
     31 N08          0.2690     1.2630     0.5390 na         1 H67       0.144300
     32 N09         -0.7610     2.1850     0.4980 nd         1 H67      -0.496800
     33 N17         -6.6570     0.3400     0.1800 n3         1 H67      -0.706600
     34 O01          3.6140     2.9900    -2.8500 o          1 H67      -0.705000
     35 O14         -3.8510    -0.3790     1.0170 os         1 H67      -0.437000
     36 O37          5.4690     3.2100    -1.7850 o          1 H67      -0.705000
     37 H1          -2.7800     1.8530     0.6500 h4         1 H67       0.043100
     38 H2          -2.8740    -1.5840    -1.1050 hc         1 H67       0.039367
     39 H3          -1.5560    -2.4700    -0.3180 hc         1 H67       0.039367
     40 H4          -3.2290    -2.9030     0.0390 hc         1 H67       0.039367
     41 H5          -4.7970    -1.5640     2.4630 h1         1 H67       0.014700
     42 H6          -5.1380    -2.0350     0.7890 h1         1 H67       0.014700
     43 H7          -8.5750     1.5910    -3.0440 hc         1 H67       0.032700
     44 H8          -9.3520     0.5020    -1.8940 hc         1 H67       0.032700
     45 H9          -7.4950    -0.7080    -3.0090 hc         1 H67       0.047200
     46 H10         -6.3550     0.5730    -2.6040 hc         1 H67       0.047200
     47 H11         -7.7890    -1.2870    -0.6190 h1         1 H67       0.024700
     48 H12         -6.0740    -1.3110    -1.0560 h1         1 H67       0.024700
     49 H13          4.0160    -4.7560    -0.7560 ha         1 H67       0.120500
     50 H14          5.3780     2.5400     0.7140 ha         1 H67       0.140000
     51 H15          4.1850     1.7280     2.7400 h4         1 H67       0.000100
     52 H16         -2.4140    -1.5570     1.9440 h1         1 H67       0.025700
     53 H17         -7.0800    -0.9090     1.8490 h1         1 H67       0.033700
     54 H18         -6.0880     0.4960     2.2210 h1         1 H67       0.033700
     55 H19         -7.5530     2.0260     1.1350 h1         1 H67       0.024700
     56 H20         -8.6890     0.7410     0.6960 h1         1 H67       0.024700
     57 H21         -7.2840     2.6860    -1.2280 hc         1 H67       0.047200
     58 H22         -8.9910     2.6970    -0.7950 hc         1 H67       0.047200
     59 H23          2.2420    -0.6310    -0.5330 ha         1 H67       0.130000
     60 H24          6.1450    -4.8890    -2.0100 ha         1 H67       0.112000
     61 H25          7.4780    -2.8280    -2.4450 ha         1 H67       0.105000
     62 H26          6.6680    -0.6250    -1.6040 ha         1 H67       0.112000
     63 H27          4.5540    -0.4790    -0.3310 ha         1 H67       0.120500
     64 H28          3.0460    -4.4230     1.3460 ha         1 H67       0.106000
     65 H29          0.9140    -4.2570     2.5850 ha         1 H67       0.103000
     66 H30         -0.5220    -2.2780     2.3460 ha         1 H67       0.115000
     67 H31          1.6480     2.1370    -1.4450 ha         1 H67       0.160000
     68 C02          4.2850     2.9080    -1.8310 c          1 H67       0.714600
@<TRIPOS>BOND
     1     1    14 1   
     2     1    32 2   
     3     1    37 1   
     4     2    15 1   
     5     2    38 1   
     6     2    39 1   
     7     2    40 1   
     8     3    16 1   
     9     3    35 1   
    10     3    41 1   
    11     3    42 1   
    12     4     5 1   
    13     4    18 1   
    14     4    43 1   
    15     4    44 1   
    16     5     6 1   
    17     5    45 1   
    18     5    46 1   
    19     6    33 1   
    20     6    47 1   
    21     6    48 1   
    22     7    19 1   
    23     7    20 ar  
    24     7    28 ar  
    25     8    20 ar  
    26     8    21 1   
    27     8    26 ar  
    28     9    21 ar  
    29     9    22 ar  
    30     9    49 1   
    31    10    11 ar  
    32    10    29 ar  
    33    10    68 1   
    34    11    12 ar  
    35    11    50 1   
    36    12    30 ar  
    37    12    51 1   
    38    13    29 ar  
    39    13    30 ar  
    40    13    31 1   
    41    14    15 1   
    42    14    19 2   
    43    15    35 1   
    44    15    52 1   
    45    16    33 1   
    46    16    53 1   
    47    16    54 1   
    48    17    18 1   
    49    17    33 1   
    50    17    55 1   
    51    17    56 1   
    52    18    57 1   
    53    18    58 1   
    54    19    31 1   
    55    20    59 1   
    56    21    25 ar  
    57    22    23 ar  
    58    22    60 1   
    59    23    24 ar  
    60    23    61 1   
    61    24    25 ar  
    62    24    62 1   
    63    25    63 1   
    64    26    27 ar  
    65    26    64 1   
    66    27    28 ar  
    67    27    65 1   
    68    28    66 1   
    69    29    67 1   
    70    31    32 1   
    71    34    68 1   
    72    36    68 1   
@<TRIPOS>SUBSTRUCTURE
     1 H67         1 TEMP              0 ****  ****    0 ROOT
