@<TRIPOS>MOLECULE
H68
   48    51     1     0     0
SMALL
abcg2


@<TRIPOS>ATOM
      1 C16          4.6680     2.3690     0.4400 c3         1 H68       0.147900
      2 O4           4.1980     1.5350    -0.6110 os         1 H68      -0.351100
      3 C15          3.6430     0.3600    -0.1960 ca         1 H68       0.065100
      4 C17          2.2600     0.2540    -0.0960 ca         1 H68      -0.054300
      5 C18          1.4010     1.4400    -0.4400 c6         1 H68       0.220100
      6 N1           0.0350     1.2730     0.0040 n3         1 H68      -0.725600
      7 C19         -0.7740     2.4180    -0.3540 c6         1 H68       0.174800
      8 C20         -2.1020     2.3490     0.3710 c6         1 H68      -0.026100
      9 C4          -2.7670     1.0270     0.1180 ca         1 H68      -0.065300
     10 C3          -4.1520     0.9000     0.2560 ca         1 H68      -0.153000
     11 C2          -4.7910    -0.2960    -0.0100 ca         1 H68       0.051100
     12 O1          -6.1200    -0.5210     0.0920 os         1 H68      -0.366100
     13 C1          -6.9600     0.5560     0.4520 c3         1 H68       0.156900
     14 C7          -4.0340    -1.3990    -0.4420 ca         1 H68       0.119100
     15 O2          -4.6190    -2.5820    -0.7320 oh         1 H68      -0.536100
     16 C6          -2.6680    -1.2690    -0.5780 ca         1 H68      -0.123000
     17 C5          -2.0160    -0.0660    -0.2880 ca         1 H68      -0.070300
     18 C8          -0.5140     0.0050    -0.4490 c6         1 H68       0.235800
     19 C9           0.1840    -1.0920     0.3510 c6         1 H68      -0.018100
     20 C10          1.6800    -0.9610     0.2720 ca         1 H68      -0.091300
     21 C11          2.5080    -2.0370     0.5580 ca         1 H68      -0.077000
     22 C12          3.8900    -1.9350     0.4750 ca         1 H68      -0.188000
     23 C13          4.4720    -0.7310     0.0950 ca         1 H68       0.119100
     24 O3           5.7960    -0.5230    -0.0350 os         1 H68      -0.329100
     25 C14          6.6680    -1.6030     0.2280 c3         1 H68       0.145900
     26 H1           5.0330     3.2870    -0.0170 h1         1 H68       0.035033
     27 H2           3.8660     2.6210     1.1400 h1         1 H68       0.035033
     28 H3           5.4840     1.9050     0.9960 h1         1 H68       0.035033
     29 H4           1.7970     2.3430     0.0310 h1         1 H68       0.048700
     30 H5           1.4570     1.6160    -1.5290 h1         1 H68       0.048700
     31 H7          -0.2390     3.3240    -0.0580 h1         1 H68       0.034700
     32 H8          -0.9380     2.4880    -1.4430 h1         1 H68       0.034700
     33 H9          -1.9350     2.4970     1.4420 hc         1 H68       0.054700
     34 H10         -2.7480     3.1650     0.0400 hc         1 H68       0.054700
     35 H11         -4.7190     1.7680     0.5680 ha         1 H68       0.115000
     36 H12         -6.8880     1.3820    -0.2610 h1         1 H68       0.041367
     37 H13         -7.9770     0.1720     0.4460 h1         1 H68       0.041367
     38 H14         -6.7310     0.9330     1.4520 h1         1 H68       0.041367
     39 H15         -5.5740    -2.5170    -0.6120 ho         1 H68       0.480000
     40 H16         -2.1050    -2.1280    -0.9240 ha         1 H68       0.130000
     41 H17         -0.2870    -0.1510    -1.5220 h1         1 H68       0.039700
     42 H18         -0.1490    -1.0220     1.3910 hc         1 H68       0.059200
     43 H19         -0.1140    -2.0790    -0.0080 hc         1 H68       0.059200
     44 H20          2.0710    -2.9860     0.8440 ha         1 H68       0.113000
     45 H21          4.4950    -2.8030     0.7010 ha         1 H68       0.118000
     46 H22          6.5880    -1.9550     1.2600 h1         1 H68       0.040367
     47 H23          6.4890    -2.4460    -0.4460 h1         1 H68       0.040367
     48 H24          7.6770    -1.2330     0.0630 h1         1 H68       0.040367
@<TRIPOS>BOND
     1     1     2 1   
     2     1    26 1   
     3     1    27 1   
     4     1    28 1   
     5     2     3 1   
     6     3     4 ar  
     7     3    23 ar  
     8     4     5 1   
     9     4    20 ar  
    10     5     6 1   
    11     5    29 1   
    12     5    30 1   
    13     6     7 1   
    14     6    18 1   
    15     7     8 1   
    16     7    31 1   
    17     7    32 1   
    18     8     9 1   
    19     8    33 1   
    20     8    34 1   
    21     9    10 ar  
    22     9    17 ar  
    23    10    11 ar  
    24    10    35 1   
    25    11    12 1   
    26    11    14 ar  
    27    12    13 1   
    28    13    36 1   
    29    13    37 1   
    30    13    38 1   
    31    14    15 1   
    32    14    16 ar  
    33    15    39 1   
    34    16    17 ar  
    35    16    40 1   
    36    17    18 1   
    37    18    19 1   
    38    18    41 1   
    39    19    20 1   
    40    19    42 1   
    41    19    43 1   
    42    20    21 ar  
    43    21    22 ar  
    44    21    44 1   
    45    22    23 ar  
    46    22    45 1   
    47    23    24 1   
    48    24    25 1   
    49    25    46 1   
    50    25    47 1   
    51    25    48 1   
@<TRIPOS>SUBSTRUCTURE
     1 H68         1 TEMP              0 ****  ****    0 ROOT
